<?xml version="1.0" encoding="UTF-8"?>

<!-- generated on 11/17/18 16:12:46 by Eclipse SUMO netedit Version 1.0.1
<configuration xmlns:xsi="http://www.w3.org/2001/XMLSchema-instance" xsi:noNamespaceSchemaLocation="http://sumo.dlr.de/xsd/netconvertConfiguration.xsd">

    <input>
        <sumo-net-file value="C:\Users\micha\Desktop\crosssim\data\cross.net.xml"/>
    </input>

    <output>
        <output-file value="C:\Users\micha\Desktop\crosssim\data\cross.net.xml"/>
    </output>

    <processing>
        <offset.disable-normalization value="true"/>
        <lefthand value="false"/>
    </processing>

    <junctions>
        <no-internal-links value="false"/>
        <no-turnarounds value="true"/>
        <junctions.corner-detail value="5"/>
        <junctions.limit-turn-speed value="5.5"/>
        <rectangular-lane-cut value="false"/>
    </junctions>

    <pedestrian>
        <walkingareas value="false"/>
    </pedestrian>

</configuration>
-->

<net version="1.0" junctionCornerDetail="5" limitTurnSpeed="5.50" xmlns:xsi="http://www.w3.org/2001/XMLSchema-instance" xsi:noNamespaceSchemaLocation="http://sumo.dlr.de/xsd/net_file.xsd">

    <location netOffset="0.00,0.00" convBoundary="-100.00,-100.00,100.00,100.00" origBoundary="-10000000000.00,-10000000000.00,10000000000.00,10000000000.00" projParameter="!"/>

    <edge id=":C0_0" function="internal">
        <lane id=":C0_0_0" index="0" allow="bicycle" speed="13.89" length="19.80" width="2.00" shape="-4.20,9.90 -4.20,-9.90"/>
    </edge>
    <edge id=":C0_1" function="internal">
        <lane id=":C0_1_0" index="0" disallow="bicycle pedestrian" speed="6.92" length="2.79" width="2.00" shape="-1.60,9.90 -2.04,7.41 -2.20,7.20"/>
    </edge>
    <edge id=":C0_2" function="internal">
        <lane id=":C0_2_0" index="0" disallow="pedestrian" speed="13.89" length="19.80" shape="-1.60,9.90 -1.60,-9.90"/>
    </edge>
    <edge id=":C0_3" function="internal">
        <lane id=":C0_3_0" index="0" disallow="pedestrian" speed="8.85" length="7.09" shape="-1.60,9.90 -0.96,4.87 -0.00,3.09"/>
    </edge>
    <edge id=":C0_16" function="internal">
        <lane id=":C0_16_0" index="0" speed="6.92" length="7.55" width="2.00" shape="-2.20,7.20 -3.38,5.63 -5.59,4.56 -8.70,4.20"/>
    </edge>
    <edge id=":C0_17" function="internal">
        <lane id=":C0_17_0" index="0" speed="8.85" length="10.50" shape="-0.00,3.09 0.98,1.28 4.19,-0.88 8.70,-1.60"/>
    </edge>
    <edge id=":C0_4" function="internal">
        <lane id=":C0_4_0" index="0" disallow="pedestrian" speed="6.78" length="5.10" shape="8.70,4.80 5.59,5.12 3.78,5.90"/>
    </edge>
    <edge id=":C0_5" function="internal">
        <lane id=":C0_5_0" index="0" disallow="bicycle pedestrian" speed="13.89" length="17.41" width="2.00" shape="8.70,4.80 -8.70,4.20"/>
        <lane id=":C0_5_1" index="1" disallow="bicycle pedestrian" speed="13.89" length="17.41" shape="8.70,1.60 -8.70,1.60"/>
    </edge>
    <edge id=":C0_7" function="internal">
        <lane id=":C0_7_0" index="0" disallow="pedestrian" speed="8.85" length="6.15" shape="8.70,1.60 4.19,0.88 2.88,-0.00"/>
    </edge>
    <edge id=":C0_18" function="internal">
        <lane id=":C0_18_0" index="0" speed="6.78" length="4.79" shape="3.78,5.90 3.37,6.07 2.04,7.67 1.60,9.90"/>
    </edge>
    <edge id=":C0_19" function="internal">
        <lane id=":C0_19_0" index="0" speed="8.85" length="11.44" shape="2.88,-0.00 0.98,-1.27 -0.96,-4.87 -1.60,-9.90"/>
    </edge>
    <edge id=":C0_8" function="internal">
        <lane id=":C0_8_0" index="0" allow="bicycle" speed="13.89" length="19.80" width="2.00" shape="4.20,-9.90 4.20,9.90"/>
    </edge>
    <edge id=":C0_9" function="internal">
        <lane id=":C0_9_0" index="0" disallow="pedestrian" speed="6.78" length="2.52" shape="1.60,-9.90 2.04,-7.67 2.20,-7.48"/>
    </edge>
    <edge id=":C0_10" function="internal">
        <lane id=":C0_10_0" index="0" disallow="pedestrian" speed="13.89" length="19.80" shape="1.60,-9.90 1.60,9.90"/>
    </edge>
    <edge id=":C0_11" function="internal">
        <lane id=":C0_11_0" index="0" disallow="bicycle pedestrian" speed="8.85" length="7.09" shape="1.60,-9.90 0.96,-4.87 0.00,-3.09"/>
    </edge>
    <edge id=":C0_20" function="internal">
        <lane id=":C0_20_0" index="0" speed="6.78" length="7.37" shape="2.20,-7.48 3.38,-6.07 5.59,-5.12 8.70,-4.80"/>
    </edge>
    <edge id=":C0_21" function="internal">
        <lane id=":C0_21_0" index="0" speed="8.85" length="10.50" shape="0.00,-3.09 -0.98,-1.28 -4.19,0.88 -8.70,1.60"/>
    </edge>
    <edge id=":C0_12" function="internal">
        <lane id=":C0_12_0" index="0" disallow="pedestrian" speed="6.78" length="5.10" shape="-8.70,-4.80 -5.59,-5.12 -3.78,-5.90"/>
    </edge>
    <edge id=":C0_13" function="internal">
        <lane id=":C0_13_0" index="0" disallow="pedestrian" speed="13.89" length="17.40" shape="-8.70,-4.80 8.70,-4.80"/>
        <lane id=":C0_13_1" index="1" disallow="pedestrian" speed="13.89" length="17.40" shape="-8.70,-1.60 8.70,-1.60"/>
    </edge>
    <edge id=":C0_15" function="internal">
        <lane id=":C0_15_0" index="0" disallow="pedestrian" speed="8.85" length="6.15" shape="-8.70,-1.60 -4.19,-0.88 -2.88,0.00"/>
    </edge>
    <edge id=":C0_22" function="internal">
        <lane id=":C0_22_0" index="0" speed="6.78" length="4.79" shape="-3.78,-5.90 -3.37,-6.07 -2.04,-7.67 -1.60,-9.90"/>
    </edge>
    <edge id=":C0_23" function="internal">
        <lane id=":C0_23_0" index="0" speed="8.85" length="11.44" shape="-2.88,0.00 -0.98,1.27 0.96,4.87 1.60,9.90"/>
    </edge>
    <edge id=":C0_c0" function="crossing" crossingEdges="C0_N0 N0_C0">
        <lane id=":C0_c0_0" index="0" allow="pedestrian" speed="1.00" length="10.40" width="4.00" shape="5.20,7.90 -5.20,7.90"/>
    </edge>
    <edge id=":C0_c1" function="crossing" crossingEdges="C0_E0 E0_C0">
        <lane id=":C0_c1_0" index="0" allow="pedestrian" speed="1.00" length="12.80" width="4.00" shape="6.70,-6.40 6.70,6.40"/>
    </edge>
    <edge id=":C0_c2" function="crossing" crossingEdges="C0_S0 S0_C0">
        <lane id=":C0_c2_0" index="0" allow="pedestrian" speed="1.00" length="10.40" width="4.00" shape="-5.20,-7.90 5.20,-7.90"/>
    </edge>
    <edge id=":C0_c3" function="crossing" crossingEdges="C0_W0 W0_C0">
        <lane id=":C0_c3_0" index="0" allow="pedestrian" speed="1.00" length="11.60" width="4.00" shape="-6.70,5.20 -6.70,-6.40"/>
    </edge>
    <edge id=":C0_w0" function="walkingarea">
        <lane id=":C0_w0_0" index="0" allow="pedestrian" speed="1.00" length="3.44" width="4.00" shape="-8.70,5.20 -8.70,7.20 -7.20,9.90 -5.20,9.90 -5.30,8.46 -5.59,7.29 -6.08,6.37 -6.76,5.72 -7.63,5.33"/>
    </edge>
    <edge id=":C0_w1" function="walkingarea">
        <lane id=":C0_w1_0" index="0" allow="pedestrian" speed="1.00" length="2.87" width="4.00" shape="5.20,9.90 7.20,9.90 8.70,8.40 8.70,6.40 7.63,6.50 6.76,6.79 6.08,7.27 5.59,7.96 5.30,8.83"/>
    </edge>
    <edge id=":C0_w2" function="walkingarea">
        <lane id=":C0_w2_0" index="0" allow="pedestrian" speed="1.00" length="2.87" width="4.00" shape="8.70,-6.40 8.70,-8.40 7.20,-9.90 5.20,-9.90 5.30,-8.83 5.59,-7.96 6.08,-7.28 6.76,-6.79 7.63,-6.50"/>
    </edge>
    <edge id=":C0_w3" function="walkingarea">
        <lane id=":C0_w3_0" index="0" allow="pedestrian" speed="1.00" length="2.87" width="4.00" shape="-5.20,-9.90 -7.20,-9.90 -8.70,-8.40 -8.70,-6.40 -7.63,-6.50 -6.76,-6.79 -6.08,-7.27 -5.59,-7.96 -5.30,-8.83"/>
    </edge>
    <edge id=":E0_w0" function="walkingarea">
        <lane id=":E0_w0_0" index="0" allow="pedestrian" speed="1.00" length="14.80" width="2.00" shape="100.00,6.40 100.00,8.40 100.00,-8.40 100.00,-6.40"/>
    </edge>
    <edge id=":N0_w0" function="walkingarea">
        <lane id=":N0_w0_0" index="0" allow="pedestrian" speed="1.00" length="12.40" width="2.00" shape="-5.20,100.00 -7.20,100.00 7.20,100.00 5.20,100.00"/>
    </edge>
    <edge id=":S0_w0" function="walkingarea">
        <lane id=":S0_w0_0" index="0" allow="pedestrian" speed="1.00" length="12.40" width="2.00" shape="5.20,-100.00 7.20,-100.00 -7.20,-100.00 -5.20,-100.00"/>
    </edge>
    <edge id=":W0_0" function="internal">
        <lane id=":W0_0_0" index="0" disallow="bus pedestrian" speed="3.65" length="4.67" shape="-100.00,1.60 -101.20,0.80 -101.60,0.00 -101.20,-0.80 -100.00,-1.60"/>
    </edge>
    <edge id=":W0_1" function="internal">
        <lane id=":W0_1_0" index="0" disallow="pedestrian" speed="4.08" length="6.40" shape="-100.00,1.60 -100.00,-4.80"/>
    </edge>
    <edge id=":W0_2" function="internal">
        <lane id=":W0_2_0" index="0" disallow="bus pedestrian" speed="3.24" length="3.20" shape="-100.00,1.60 -100.00,-1.60"/>
    </edge>
    <edge id=":W0_w0" function="walkingarea">
        <lane id=":W0_w0_0" index="0" allow="pedestrian" speed="1.00" length="13.60" width="2.00" shape="-100.00,-6.40 -100.00,-8.40 -100.00,7.20 -100.00,5.20"/>
    </edge>

    <edge id="C0_E0" from="C0" to="E0" priority="-1">
        <lane id="C0_E0_0" index="0" allow="pedestrian" speed="13.89" length="91.30" width="2.00" shape="8.70,-7.40 100.00,-7.40"/>
        <lane id="C0_E0_1" index="1" disallow="pedestrian" speed="13.89" length="91.30" shape="8.70,-4.80 100.00,-4.80"/>
        <lane id="C0_E0_2" index="2" disallow="pedestrian" speed="13.89" length="91.30" shape="8.70,-1.60 100.00,-1.60"/>
    </edge>
    <edge id="C0_N0" from="C0" to="N0" priority="-1">
        <lane id="C0_N0_0" index="0" allow="pedestrian" speed="13.89" length="90.10" width="2.00" shape="6.20,9.90 6.20,100.00"/>
        <lane id="C0_N0_1" index="1" allow="bicycle" speed="13.89" length="90.10" width="2.00" shape="4.20,9.90 4.20,100.00"/>
        <lane id="C0_N0_2" index="2" disallow="pedestrian" speed="13.89" length="90.10" shape="1.60,9.90 1.60,100.00"/>
    </edge>
    <edge id="C0_S0" from="C0" to="S0" priority="-1">
        <lane id="C0_S0_0" index="0" allow="pedestrian" speed="13.89" length="90.10" width="2.00" shape="-6.20,-9.90 -6.20,-100.00"/>
        <lane id="C0_S0_1" index="1" allow="bicycle" speed="13.89" length="90.10" width="2.00" shape="-4.20,-9.90 -4.20,-100.00"/>
        <lane id="C0_S0_2" index="2" disallow="pedestrian" speed="13.89" length="90.10" shape="-1.60,-9.90 -1.60,-100.00"/>
    </edge>
    <edge id="C0_W0" from="C0" to="W0" priority="-1">
        <lane id="C0_W0_0" index="0" allow="pedestrian" speed="13.89" length="91.30" width="2.00" shape="-8.70,6.20 -100.00,6.20"/>
        <lane id="C0_W0_1" index="1" disallow="bicycle pedestrian" speed="13.89" length="91.30" width="2.00" shape="-8.70,4.20 -100.00,4.20"/>
        <lane id="C0_W0_2" index="2" disallow="bicycle pedestrian" speed="13.89" length="91.30" shape="-8.70,1.60 -100.00,1.60"/>
    </edge>
    <edge id="E0_C0" from="E0" to="C0" priority="-1">
        <lane id="E0_C0_0" index="0" allow="pedestrian" speed="13.89" length="91.30" width="2.00" shape="100.00,7.40 8.70,7.40"/>
        <lane id="E0_C0_1" index="1" disallow="pedestrian" speed="13.89" length="91.30" shape="100.00,4.80 8.70,4.80"/>
        <lane id="E0_C0_2" index="2" disallow="bus pedestrian" speed="13.89" length="91.30" shape="100.00,1.60 8.70,1.60"/>
    </edge>
    <edge id="N0_C0" from="N0" to="C0" priority="-1">
        <lane id="N0_C0_0" index="0" allow="pedestrian" speed="13.89" length="90.10" width="2.00" shape="-6.20,100.00 -6.20,9.90"/>
        <lane id="N0_C0_1" index="1" allow="bicycle" speed="13.89" length="90.10" width="2.00" shape="-4.20,100.00 -4.20,9.90"/>
        <lane id="N0_C0_2" index="2" disallow="bicycle pedestrian" speed="13.89" length="90.10" shape="-1.60,100.00 -1.60,9.90"/>
    </edge>
    <edge id="S0_C0" from="S0" to="C0" priority="-1">
        <lane id="S0_C0_0" index="0" allow="pedestrian" speed="13.89" length="90.10" width="2.00" shape="6.20,-100.00 6.20,-9.90"/>
        <lane id="S0_C0_1" index="1" allow="bicycle" speed="13.89" length="90.10" width="2.00" shape="4.20,-100.00 4.20,-9.90"/>
        <lane id="S0_C0_2" index="2" disallow="bicycle pedestrian" speed="13.89" length="90.10" shape="1.60,-100.00 1.60,-9.90"/>
    </edge>
    <edge id="W0_C0" from="W0" to="C0" priority="-1">
        <lane id="W0_C0_0" index="0" allow="pedestrian" speed="13.89" length="91.30" width="2.00" shape="-100.00,-7.40 -8.70,-7.40"/>
        <lane id="W0_C0_1" index="1" disallow="pedestrian" speed="13.89" length="91.30" shape="-100.00,-4.80 -8.70,-4.80"/>
        <lane id="W0_C0_2" index="2" disallow="bus pedestrian" speed="13.89" length="91.30" shape="-100.00,-1.60 -8.70,-1.60"/>
    </edge>
    <edge id="gneE9" from="gneJ16" to="W0" priority="-1">
        <lane id="gneE9_0" index="0" speed="13.89" length="100.00" shape="0.00,1.60 -100.00,1.60"/>
    </edge>

    <tlLogic id="C0" type="static" programID="0" offset="0">
        <phase duration="22" state="GgGgrrrrGgGgrrrrrGrG"/>
        <phase duration="3"  state="ygGgrrrrygGgrrrrrrrr"/>
        <phase duration="25" state="rgGgrrrrrgGgrrrrrrrr"/>
        <phase duration="3"  state="ryyggrrrryyggrrrrrrr"/>
        <phase duration="11" state="rrrGGrrrrrrGGrrrrrrr"/>
        <phase duration="3"  state="rrrygrrrrrrygrrrrrrr"/>
        <phase duration="16" state="rrrrgGGgrrrrgGGgGrGr"/>
        <phase duration="25" state="rrrrgGGgrrrrgGGgrrrr"/>
        <phase duration="3"  state="rgrryyygrgrryyygrrrr"/>
        <phase duration="16" state="rGrrrrrGrGrrrrrGrrrr"/>
        <phase duration="3"  state="rgrrrrryrgrrrrryrrrr"/>
    </tlLogic>
    <tlLogic id="C0" type="static" programID="1" offset="0">
        <phase duration="22" state="GgGgrrrrGgGgrrrrrGrG"/>
        <phase duration="3"  state="ygGgrrrrygGgrrrrrrrr"/>
        <phase duration="36" state="rgGgrrrrrgGgrrrrrrrr"/>
        <phase duration="3"  state="ryyggrrrryyggrrrrrrr"/>
        <phase duration="10" state="rrrGGrrrrrrGGrrrrrrr"/>
        <phase duration="3"  state="rrrygrrrrrrygrrrrrrr"/>
        <phase duration="16" state="rrrrgGGgrrrrgGGgGrGr"/>
        <phase duration="18" state="rrrrgGGgrrrrgGGgrrrr"/>
        <phase duration="3"  state="rgrryyygrgrryyygrrrr"/>
        <phase duration="13" state="rGrrrrrGrGrrrrrGrrrr"/>
        <phase duration="3"  state="rgrrrrryrgrrrrryrrrr"/>
    </tlLogic>
    <tlLogic id="C0" type="static" programID="2" offset="0">
        <phase duration="14" state="GgGgrrrrGgGgrrrrrGrG"/>
        <phase duration="3"  state="ygGgrrrrygGgrrrrrrrr"/>
        <phase duration="22" state="rgGgrrrrrgGgrrrrrrrr"/>
        <phase duration="3"  state="ryyggrrrryyggrrrrrrr"/>
        <phase duration="9" state="rrrGGrrrrrrGGrrrrrrr"/>
        <phase duration="3"  state="rrrygrrrrrrygrrrrrrr"/>
        <phase duration="18" state="rrrrgGGgrrrrgGGgGrGr"/>
        <phase duration="36" state="rrrrgGGgrrrrgGGgrrrr"/>
        <phase duration="3"  state="rgrryyygrgrryyygrrrr"/>
        <phase duration="16" state="rGrrrrrGrGrrrrrGrrrr"/>
        <phase duration="3"  state="rgrrrrryrgrrrrryrrrr"/>
    </tlLogic>
    <tlLogic id="C0" type="static" programID="3" offset="0">
        <phase duration="20" state="GgGgrrrrGgGgrrrrrGrG"/>
        <phase duration="3"  state="ygGgrrrrygGgrrrrrrrr"/>
        <phase duration="21" state="rgGgrrrrrgGgrrrrrrrr"/>
        <phase duration="3"  state="ryyggrrrryyggrrrrrrr"/>
        <phase duration="10" state="rrrGGrrrrrrGGrrrrrrr"/>
        <phase duration="3"  state="rrrygrrrrrrygrrrrrrr"/>
        <phase duration="16" state="rrrrgGGgrrrrgGGgGrGr"/>
        <phase duration="18" state="rrrrgGGgrrrrgGGgrrrr"/>
        <phase duration="3"  state="rgrryyygrgrryyygrrrr"/>
        <phase duration="30" state="rGrrrrrGrGrrrrrGrrrr"/>
        <phase duration="3"  state="rgrrrrryrgrrrrryrrrr"/>
    </tlLogic>

    <junction id="C0" type="traffic_light" x="0.00" y="0.00" incLanes="N0_C0_0 N0_C0_1 N0_C0_2 E0_C0_0 E0_C0_1 E0_C0_2 S0_C0_0 S0_C0_1 S0_C0_2 W0_C0_0 W0_C0_1 W0_C0_2 :C0_w1_0 :C0_w2_0 :C0_w3_0 :C0_w0_0" intLanes=":C0_0_0 :C0_16_0 :C0_2_0 :C0_17_0 :C0_18_0 :C0_5_0 :C0_5_1 :C0_19_0 :C0_8_0 :C0_20_0 :C0_10_0 :C0_21_0 :C0_22_0 :C0_13_0 :C0_13_1 :C0_23_0 :C0_c0_0 :C0_c1_0 :C0_c2_0 :C0_c3_0" shape="-7.20,9.90 7.20,9.90 7.37,9.07 7.58,8.78 7.87,8.57 8.24,8.44 8.70,8.40 8.70,-8.40 7.87,-8.57 7.58,-8.77 7.37,-9.07 7.24,-9.44 7.20,-9.90 -7.20,-9.90 -7.37,-9.07 -7.58,-8.78 -7.87,-8.57 -8.24,-8.44 -8.70,-8.40 -8.70,7.20 -7.87,7.50 -7.58,7.87 -7.37,8.40 -7.24,9.07">
        <request index="0"  response="01011001000000000000" foes="01011111100001100010" cont="0"/>
        <request index="1"  response="10010000000000000001" foes="10010000100001100001" cont="1"/>
        <request index="2"  response="01011001000010000000" foes="01011111100011100000" cont="0"/>
        <request index="3"  response="00111000011110000000" foes="00111110011111100000" cont="1"/>
        <request index="4"  response="00110000010100000000" foes="00111000010100000000" cont="1"/>
        <request index="5"  response="10100000110100001111" foes="10101000110100001111" cont="0"/>
        <request index="6"  response="10100000110100001111" foes="10101000110100001111" cont="0"/>
        <request index="7"  response="01100111110100001100" foes="01100111110100001100" cont="1"/>
        <request index="8"  response="01010000000010010000" foes="01010110001011111000" cont="0"/>
        <request index="9"  response="01100000000100000000" foes="01100110000100001000" cont="1"/>
        <request index="10" response="01011000000010010000" foes="01011110000011111000" cont="0"/>
        <request index="11" response="11001000000010000111" foes="11001110000011100111" cont="1"/>
        <request index="12" response="11000000000000000101" foes="11000000000010000101" cont="1"/>
        <request index="13" response="10100000111100001101" foes="10100000111110001101" cont="0"/>
        <request index="14" response="10100000111100001101" foes="10100000111110001101" cont="0"/>
        <request index="15" response="10010000110001111101" foes="10010000110001111101" cont="1"/>
        <request index="16" response="00000000000000000000" foes="00001000010100011111" cont="0"/>
        <request index="17" response="00000000000000000000" foes="00000110001011111000" cont="0"/>
        <request index="18" response="00000000000000000000" foes="00000001111110000101" cont="0"/>
        <request index="19" response="00000000000000000000" foes="00001111100001100010" cont="0"/>
    </junction>
    <junction id="E0" type="dead_end" x="100.00" y="0.00" incLanes="C0_E0_0 C0_E0_1 C0_E0_2" intLanes="" shape="100.00,0.00 100.00,-8.40 100.00,0.00"/>
    <junction id="N0" type="dead_end" x="0.00" y="100.00" incLanes="C0_N0_0 C0_N0_1 C0_N0_2" intLanes="" shape="0.00,100.00 7.20,100.00 0.00,100.00"/>
    <junction id="S0" type="dead_end" x="0.00" y="-100.00" incLanes="C0_S0_0 C0_S0_1 C0_S0_2" intLanes="" shape="0.00,-100.00 -7.20,-100.00 0.00,-100.00"/>
    <junction id="W0" type="priority" x="-100.00" y="0.00" incLanes="C0_W0_0 C0_W0_1 C0_W0_2 gneE9_0" intLanes=":W0_0_0 :W0_1_0 :W0_2_0" shape="-100.00,7.20 -100.00,0.00 -100.00,-8.40">
        <request index="0" response="110" foes="110" cont="0"/>
        <request index="1" response="000" foes="001" cont="0"/>
        <request index="2" response="000" foes="001" cont="0"/>
    </junction>
    <junction id="gneJ16" type="dead_end" x="0.00" y="0.00" incLanes="" intLanes="" shape="0.00,0.00 0.00,3.20"/>

    <junction id=":C0_16_0" type="internal" x="-2.20" y="7.20" incLanes=":C0_1_0 N0_C0_1" intLanes=":C0_0_0 :C0_5_0 :C0_5_1 :C0_11_0 :C0_c0_0 :C0_c3_0"/>
    <junction id=":C0_17_0" type="internal" x="-0.00" y="3.09" incLanes=":C0_3_0 S0_C0_1 S0_C0_2" intLanes=":C0_5_0 :C0_5_1 :C0_7_0 :C0_8_0 :C0_9_0 :C0_10_0 :C0_13_0 :C0_13_1 :C0_15_0 :C0_c0_0 :C0_c1_0"/>
    <junction id=":C0_18_0" type="internal" x="3.78" y="5.90" incLanes=":C0_4_0" intLanes=":C0_8_0 :C0_10_0 :C0_15_0 :C0_c0_0 :C0_c1_0"/>
    <junction id=":C0_19_0" type="internal" x="2.88" y="-0.00" incLanes=":C0_7_0 W0_C0_1 W0_C0_2" intLanes=":C0_0_0 :C0_2_0 :C0_3_0 :C0_8_0 :C0_10_0 :C0_11_0 :C0_12_0 :C0_13_0 :C0_13_1 :C0_c1_0 :C0_c2_0"/>
    <junction id=":C0_20_0" type="internal" x="2.20" y="-7.48" incLanes=":C0_9_0 S0_C0_1" intLanes=":C0_3_0 :C0_8_0 :C0_13_0 :C0_13_1 :C0_c1_0 :C0_c2_0"/>
    <junction id=":C0_21_0" type="internal" x="0.00" y="-3.09" incLanes=":C0_11_0 N0_C0_1 N0_C0_2" intLanes=":C0_0_0 :C0_1_0 :C0_2_0 :C0_5_0 :C0_5_1 :C0_7_0 :C0_13_0 :C0_13_1 :C0_15_0 :C0_c2_0 :C0_c3_0"/>
    <junction id=":C0_22_0" type="internal" x="-3.78" y="-5.90" incLanes=":C0_12_0" intLanes=":C0_0_0 :C0_2_0 :C0_7_0 :C0_c2_0 :C0_c3_0"/>
    <junction id=":C0_23_0" type="internal" x="-2.88" y="0.00" incLanes=":C0_15_0 E0_C0_1 E0_C0_2" intLanes=":C0_0_0 :C0_2_0 :C0_3_0 :C0_4_0 :C0_5_0 :C0_5_1 :C0_8_0 :C0_10_0 :C0_11_0 :C0_c0_0 :C0_c3_0"/>

    <connection from="C0_W0" to="W0_C0" fromLane="2" toLane="2" via=":W0_0_0" dir="t" state="m"/>
    <connection from="E0_C0" to="C0_N0" fromLane="1" toLane="2" via=":C0_4_0" tl="C0" linkIndex="4" dir="r" state="o"/>
    <connection from="E0_C0" to="C0_W0" fromLane="1" toLane="1" via=":C0_5_0" tl="C0" linkIndex="5" dir="s" state="o"/>
    <connection from="E0_C0" to="C0_W0" fromLane="2" toLane="2" via=":C0_5_1" tl="C0" linkIndex="6" dir="s" state="o"/>
    <connection from="E0_C0" to="C0_S0" fromLane="2" toLane="2" via=":C0_7_0" tl="C0" linkIndex="7" dir="l" state="o"/>
    <connection from="N0_C0" to="C0_S0" fromLane="1" toLane="1" via=":C0_0_0" tl="C0" linkIndex="0" dir="s" state="o"/>
    <connection from="N0_C0" to="C0_W0" fromLane="2" toLane="1" via=":C0_1_0" tl="C0" linkIndex="1" dir="r" state="o"/>
    <connection from="N0_C0" to="C0_S0" fromLane="2" toLane="2" via=":C0_2_0" tl="C0" linkIndex="2" dir="s" state="o"/>
    <connection from="N0_C0" to="C0_E0" fromLane="2" toLane="2" via=":C0_3_0" tl="C0" linkIndex="3" dir="l" state="o"/>
    <connection from="S0_C0" to="C0_N0" fromLane="1" toLane="1" via=":C0_8_0" tl="C0" linkIndex="8" dir="s" state="o"/>
    <connection from="S0_C0" to="C0_E0" fromLane="2" toLane="1" via=":C0_9_0" tl="C0" linkIndex="9" dir="r" state="o"/>
    <connection from="S0_C0" to="C0_N0" fromLane="2" toLane="2" via=":C0_10_0" tl="C0" linkIndex="10" dir="s" state="o"/>
    <connection from="S0_C0" to="C0_W0" fromLane="2" toLane="2" via=":C0_11_0" tl="C0" linkIndex="11" dir="l" state="o"/>
    <connection from="W0_C0" to="C0_S0" fromLane="1" toLane="2" via=":C0_12_0" tl="C0" linkIndex="12" dir="r" state="o"/>
    <connection from="W0_C0" to="C0_E0" fromLane="1" toLane="1" via=":C0_13_0" tl="C0" linkIndex="13" dir="s" state="o"/>
    <connection from="W0_C0" to="C0_E0" fromLane="2" toLane="2" via=":C0_13_1" tl="C0" linkIndex="14" dir="s" state="o"/>
    <connection from="W0_C0" to="C0_N0" fromLane="2" toLane="2" via=":C0_15_0" tl="C0" linkIndex="15" dir="l" state="o"/>
    <connection from="gneE9" to="W0_C0" fromLane="0" toLane="1" via=":W0_1_0" dir="l" state="M"/>
    <connection from="gneE9" to="W0_C0" fromLane="0" toLane="2" via=":W0_2_0" dir="l" state="M"/>

    <connection from=":C0_0" to="C0_S0" fromLane="0" toLane="1" dir="s" state="M"/>
    <connection from=":C0_1" to="C0_W0" fromLane="0" toLane="1" via=":C0_16_0" dir="r" state="m"/>
    <connection from=":C0_16" to="C0_W0" fromLane="0" toLane="1" dir="r" state="M"/>
    <connection from=":C0_2" to="C0_S0" fromLane="0" toLane="2" dir="s" state="M"/>
    <connection from=":C0_3" to="C0_E0" fromLane="0" toLane="2" via=":C0_17_0" dir="l" state="m"/>
    <connection from=":C0_17" to="C0_E0" fromLane="0" toLane="2" dir="l" state="M"/>
    <connection from=":C0_4" to="C0_N0" fromLane="0" toLane="2" via=":C0_18_0" dir="r" state="m"/>
    <connection from=":C0_18" to="C0_N0" fromLane="0" toLane="2" dir="r" state="M"/>
    <connection from=":C0_5" to="C0_W0" fromLane="0" toLane="1" dir="s" state="M"/>
    <connection from=":C0_5" to="C0_W0" fromLane="1" toLane="2" dir="s" state="M"/>
    <connection from=":C0_7" to="C0_S0" fromLane="0" toLane="2" via=":C0_19_0" dir="l" state="m"/>
    <connection from=":C0_19" to="C0_S0" fromLane="0" toLane="2" dir="l" state="M"/>
    <connection from=":C0_8" to="C0_N0" fromLane="0" toLane="1" dir="s" state="M"/>
    <connection from=":C0_9" to="C0_E0" fromLane="0" toLane="1" via=":C0_20_0" dir="r" state="m"/>
    <connection from=":C0_20" to="C0_E0" fromLane="0" toLane="1" dir="r" state="M"/>
    <connection from=":C0_10" to="C0_N0" fromLane="0" toLane="2" dir="s" state="M"/>
    <connection from=":C0_11" to="C0_W0" fromLane="0" toLane="2" via=":C0_21_0" dir="l" state="m"/>
    <connection from=":C0_21" to="C0_W0" fromLane="0" toLane="2" dir="l" state="M"/>
    <connection from=":C0_12" to="C0_S0" fromLane="0" toLane="2" via=":C0_22_0" dir="r" state="m"/>
    <connection from=":C0_22" to="C0_S0" fromLane="0" toLane="2" dir="r" state="M"/>
    <connection from=":C0_13" to="C0_E0" fromLane="0" toLane="1" dir="s" state="M"/>
    <connection from=":C0_13" to="C0_E0" fromLane="1" toLane="2" dir="s" state="M"/>
    <connection from=":C0_15" to="C0_N0" fromLane="0" toLane="2" via=":C0_23_0" dir="l" state="m"/>
    <connection from=":C0_23" to="C0_N0" fromLane="0" toLane="2" dir="l" state="M"/>
    <connection from=":W0_0" to="W0_C0" fromLane="0" toLane="2" dir="t" state="M"/>
    <connection from=":W0_1" to="W0_C0" fromLane="0" toLane="1" dir="l" state="M"/>
    <connection from=":W0_2" to="W0_C0" fromLane="0" toLane="2" dir="l" state="M"/>

    <connection from=":C0_c0" to=":C0_w0" fromLane="0" toLane="0" dir="s" state="M"/>
    <connection from=":C0_c1" to=":C0_w1" fromLane="0" toLane="0" dir="s" state="M"/>
    <connection from=":C0_c2" to=":C0_w2" fromLane="0" toLane="0" dir="s" state="M"/>
    <connection from=":C0_c3" to=":C0_w3" fromLane="0" toLane="0" dir="s" state="M"/>
    <connection from=":C0_w0" to=":C0_c3" fromLane="0" toLane="0" tl="C0" linkIndex="19" dir="s" state="M"/>
    <connection from=":C0_w0" to="C0_W0" fromLane="0" toLane="0" dir="s" state="M"/>
    <connection from="N0_C0" to=":C0_w0" fromLane="0" toLane="0" dir="s" state="M"/>
    <connection from=":C0_w1" to=":C0_c0" fromLane="0" toLane="0" tl="C0" linkIndex="16" dir="s" state="M"/>
    <connection from=":C0_w1" to="C0_N0" fromLane="0" toLane="0" dir="s" state="M"/>
    <connection from="E0_C0" to=":C0_w1" fromLane="0" toLane="0" dir="s" state="M"/>
    <connection from=":C0_w2" to=":C0_c1" fromLane="0" toLane="0" tl="C0" linkIndex="17" dir="s" state="M"/>
    <connection from=":C0_w2" to="C0_E0" fromLane="0" toLane="0" dir="s" state="M"/>
    <connection from="S0_C0" to=":C0_w2" fromLane="0" toLane="0" dir="s" state="M"/>
    <connection from=":C0_w3" to=":C0_c2" fromLane="0" toLane="0" tl="C0" linkIndex="18" dir="s" state="M"/>
    <connection from=":C0_w3" to="C0_S0" fromLane="0" toLane="0" dir="s" state="M"/>
    <connection from="W0_C0" to=":C0_w3" fromLane="0" toLane="0" dir="s" state="M"/>
    <connection from=":E0_w0" to="E0_C0" fromLane="0" toLane="0" dir="s" state="M"/>
    <connection from="C0_E0" to=":E0_w0" fromLane="0" toLane="0" dir="s" state="M"/>
    <connection from=":N0_w0" to="N0_C0" fromLane="0" toLane="0" dir="s" state="M"/>
    <connection from="C0_N0" to=":N0_w0" fromLane="0" toLane="0" dir="s" state="M"/>
    <connection from=":S0_w0" to="S0_C0" fromLane="0" toLane="0" dir="s" state="M"/>
    <connection from="C0_S0" to=":S0_w0" fromLane="0" toLane="0" dir="s" state="M"/>
    <connection from=":W0_w0" to="W0_C0" fromLane="0" toLane="0" dir="s" state="M"/>
    <connection from="C0_W0" to=":W0_w0" fromLane="0" toLane="0" dir="s" state="M"/>
</net>
