<routes>
        <vType id="car" accel="0.7" decel="4.5" sigma="0.5" length="4.5" minGap="2.5" maxSpeed="30" guiShape="passenger"/>
        <vType id="bike" accel="0.2" decel="3.5" sigma="0.5" length="2.5" minGap="1.5" maxSpeed="5" vClass="bicycle" guiShape="bicycle"/>
        <vType id="bus" accel="0.4" decel="6.5" sigma="0.5" length="12" minGap="1.5" maxSpeed="15" vClass="bus" guiShape="bus"/>

        <route id="w_e_bus" edges="W0_C0 C0_E0" />
        <route id="e_w_bus" edges="E0_C0 C0_W0" />
        <route id="w_e" edges="W0_C0 C0_E0" />
        <route id="w_s" edges="W0_C0 C0_S0" />
        <route id="w_n" edges="W0_C0 C0_N0" />
        <route id="n_e" edges="N0_C0 C0_E0" />
        <route id="n_s" edges="N0_C0 C0_S0" />
        <route id="n_w" edges="N0_C0 C0_W0" />
        <route id="s_e" edges="S0_C0 C0_E0" />
        <route id="s_w" edges="S0_C0 C0_W0" />
        <route id="s_n" edges="S0_C0 C0_N0" />
        <route id="e_w" edges="E0_C0 C0_W0" />
        <route id="e_s" edges="E0_C0 C0_S0" />
        <route id="e_n" edges="E0_C0 C0_N0" />
        <route id="n_s_bike" edges="N0_C0 C0_S0" />
        <route id="s_n_bike" edges="S0_C0 C0_N0" />
    <vehicle id="e_w_0" type="car" route="e_w" depart="0" />
    <vehicle id="s_n_bike_1" type="bike" route="s_n_bike" depart="0" />

	<person id="person_0" depart="0"><walk speed="0.6" edges = "E0_C0 C0_W0" />
	</person>
	<person id="person_1" depart="4"><walk speed="0.6" edges = "W0_C0 C0_N0" />
	</person>
	<person id="person_2" depart="5"><walk speed="0.6" edges = "E0_C0 C0_W0" />
	</person>    <vehicle id="w_e_2" type="car" route="w_e" depart="6" />

	<person id="person_3" depart="12"><walk speed="0.6" edges = "W0_C0 C0_E0" />
	</person>
	<person id="person_4" depart="13"><walk speed="0.6" edges = "W0_C0 C0_E0" />
	</person>    <vehicle id="n_e_3" type="car" route="n_e" depart="14" />
    <vehicle id="e_w_4" type="car" route="e_w" depart="15" />
    <vehicle id="e_n_5" type="car" route="e_n" depart="17" />

	<person id="person_5" depart="18"><walk speed="0.6" edges = "W0_C0 C0_N0" />
	</person>
	<person id="person_6" depart="19"><walk speed="0.6" edges = "W0_C0 C0_N0" />
	</person>    <vehicle id="s_w_6" type="car" route="s_w" depart="20" />

	<person id="person_7" depart="22"><walk speed="0.6" edges = "E0_C0 C0_W0" />
	</person>
	<person id="person_8" depart="23"><walk speed="0.6" edges = "N0_C0 C0_S0" />
	</person>    <vehicle id="w_e_7" type="car" route="w_e" depart="24" />

	<person id="person_9" depart="25"><walk speed="0.6" edges = "N0_C0 C0_S0" />
	</person>    <vehicle id="e_s_8" type="car" route="e_s" depart="28" />
    <vehicle id="s_w_9" type="car" route="s_w" depart="30" />
    <vehicle id="w_e_10" type="car" route="w_e" depart="31" />
    <vehicle id="s_n_bike_11" type="bike" route="s_n_bike" depart="32" />
    <vehicle id="w_e_12" type="car" route="w_e" depart="42" />
    <vehicle id="e_n_13" type="car" route="e_n" depart="45" />
    <vehicle id="w_e_14" type="car" route="w_e" depart="46" />

	<person id="person_10" depart="48"><walk speed="0.6" edges = "N0_C0 C0_S0" />
	</person>    <vehicle id="n_w_15" type="car" route="n_w" depart="49" />
    <vehicle id="s_n_bike_16" type="bike" route="s_n_bike" depart="53" />

	<person id="person_11" depart="53"><walk speed="0.6" edges = "S0_C0 C0_N0" />
	</person>    <vehicle id="n_s_bike_17" type="bike" route="n_s_bike" depart="55" />

	<person id="person_12" depart="55"><walk speed="0.6" edges = "E0_C0 C0_W0" />
	</person>    <vehicle id="e_w_18" type="car" route="e_w" depart="56" />

	<person id="person_13" depart="56"><walk speed="0.6" edges = "W0_C0 C0_E0" />
	</person>    <vehicle id="e_w_19" type="car" route="e_w" depart="65" />
    <vehicle id="n_w_20" type="car" route="n_w" depart="66" />
    <vehicle id="w_s_21" type="car" route="w_s" depart="67" />
    <vehicle id="w_s_22" type="car" route="w_s" depart="68" />
    <vehicle id="e_w_23" type="car" route="e_w" depart="68" />
    <vehicle id="s_n_bike_24" type="bike" route="s_n_bike" depart="76" />

	<person id="person_14" depart="78"><walk speed="0.6" edges = "E0_C0 C0_W0" />
	</person>
	<person id="person_15" depart="81"><walk speed="0.6" edges = "S0_C0 C0_N0" />
	</person>
	<person id="person_16" depart="82"><walk speed="0.6" edges = "W0_C0 C0_N0" />
	</person>    <vehicle id="w_s_25" type="car" route="w_s" depart="86" />
    <vehicle id="e_w_26" type="car" route="e_w" depart="87" />
    <vehicle id="n_w_27" type="car" route="n_w" depart="89" />
    <vehicle id="w_e_28" type="car" route="w_e" depart="92" />
    <vehicle id="s_n_29" type="car" route="s_n" depart="93" />
    <vehicle id="e_w_30" type="car" route="e_w" depart="93" />
    <vehicle id="n_s_31" type="car" route="n_s" depart="94" />
    <vehicle id="e_w_32" type="car" route="e_w" depart="95" />
    <vehicle id="n_s_bike_33" type="bike" route="n_s_bike" depart="97" />
    <vehicle id="s_n_bike_34" type="bike" route="s_n_bike" depart="100" />

	<person id="person_17" depart="100"><walk speed="0.6" edges = "S0_C0 C0_N0" />
	</person>    <vehicle id="w_s_35" type="car" route="w_s" depart="101" />
    <vehicle id="e_n_36" type="car" route="e_n" depart="102" />
    <vehicle id="e_w_37" type="car" route="e_w" depart="103" />
    <vehicle id="e_w_38" type="car" route="e_w" depart="104" />

	<person id="person_18" depart="105"><walk speed="0.6" edges = "W0_C0 C0_N0" />
	</person>
	<person id="person_19" depart="110"><walk speed="0.6" edges = "S0_C0 C0_N0" />
	</person>    <vehicle id="e_n_39" type="car" route="e_n" depart="111" />
    <vehicle id="e_w_40" type="car" route="e_w" depart="115" />
    <vehicle id="e_n_41" type="car" route="e_n" depart="115" />
    <vehicle id="w_e_42" type="car" route="w_e" depart="118" />

	<person id="person_20" depart="119"><walk speed="0.6" edges = "W0_C0 C0_E0" />
	</person>    <vehicle id="w_n_43" type="car" route="w_n" depart="121" />
    <vehicle id="w_s_44" type="car" route="w_s" depart="122" />
    <vehicle id="s_e_45" type="car" route="s_e" depart="122" />
    <vehicle id="n_s_46" type="car" route="n_s" depart="123" />
    <vehicle id="s_n_bike_47" type="bike" route="s_n_bike" depart="125" />
    <vehicle id="n_w_48" type="car" route="n_w" depart="130" />

	<person id="person_21" depart="130"><walk speed="0.6" edges = "N0_C0 C0_S0" />
	</person>    <vehicle id="n_s_49" type="car" route="n_s" depart="131" />
    <vehicle id="e_n_50" type="car" route="e_n" depart="134" />
    <vehicle id="w_s_51" type="car" route="w_s" depart="135" />
    <vehicle id="e_w_52" type="car" route="e_w" depart="135" />
    <vehicle id="n_w_53" type="car" route="n_w" depart="139" />
    <vehicle id="n_s_bike_54" type="bike" route="n_s_bike" depart="139" />
    <vehicle id="s_n_55" type="car" route="s_n" depart="142" />
    <vehicle id="e_w_56" type="car" route="e_w" depart="144" />

	<person id="person_22" depart="144"><walk speed="0.6" edges = "E0_C0 C0_W0" />
	</person>    <vehicle id="w_e_57" type="car" route="w_e" depart="149" />
    <vehicle id="s_n_bike_58" type="bike" route="s_n_bike" depart="149" />
    <vehicle id="s_n_bike_59" type="bike" route="s_n_bike" depart="152" />

	<person id="person_23" depart="152"><walk speed="0.6" edges = "E0_C0 C0_W0" />
	</person>    <vehicle id="w_e_60" type="car" route="w_e" depart="154" />

	<person id="person_24" depart="157"><walk speed="0.6" edges = "W0_C0 C0_N0" />
	</person>    <vehicle id="e_n_61" type="car" route="e_n" depart="158" />
    <vehicle id="e_w_62" type="car" route="e_w" depart="160" />
    <vehicle id="n_s_bike_63" type="bike" route="n_s_bike" depart="160" />
    <vehicle id="n_s_64" type="car" route="n_s" depart="162" />
    <vehicle id="w_e_65" type="car" route="w_e" depart="163" />
    <vehicle id="e_s_66" type="car" route="e_s" depart="167" />
    <vehicle id="s_n_bike_67" type="bike" route="s_n_bike" depart="172" />
    <vehicle id="w_s_68" type="car" route="w_s" depart="174" />

	<person id="person_25" depart="176"><walk speed="0.6" edges = "W0_C0 C0_N0" />
	</person>    <vehicle id="w_s_69" type="car" route="w_s" depart="178" />
    <vehicle id="w_e_70" type="car" route="w_e" depart="181" />
    <vehicle id="w_s_71" type="car" route="w_s" depart="183" />
    <vehicle id="w_e_72" type="car" route="w_e" depart="186" />

	<person id="person_26" depart="188"><walk speed="0.6" edges = "N0_C0 C0_S0" />
	</person>    <vehicle id="w_s_73" type="car" route="w_s" depart="192" />

	<person id="person_27" depart="193"><walk speed="0.6" edges = "N0_C0 C0_S0" />
	</person>    <vehicle id="s_e_74" type="car" route="s_e" depart="195" />
    <vehicle id="s_n_75" type="car" route="s_n" depart="200" />

	<person id="person_28" depart="202"><walk speed="0.6" edges = "N0_C0 C0_S0" />
	</person>
	<person id="person_29" depart="205"><walk speed="0.6" edges = "E0_C0 C0_W0" />
	</person>    <vehicle id="n_e_76" type="car" route="n_e" depart="207" />
    <vehicle id="s_n_77" type="car" route="s_n" depart="207" />
    <vehicle id="s_n_bike_78" type="bike" route="s_n_bike" depart="207" />

	<person id="person_30" depart="207"><walk speed="0.6" edges = "W0_C0 C0_N0" />
	</person>    <vehicle id="w_n_79" type="car" route="w_n" depart="209" />

	<person id="person_31" depart="211"><walk speed="0.6" edges = "S0_C0 C0_N0" />
	</person>    <vehicle id="w_e_80" type="car" route="w_e" depart="212" />
    <vehicle id="n_e_81" type="car" route="n_e" depart="214" />
    <vehicle id="w_n_82" type="car" route="w_n" depart="219" />
    <vehicle id="w_s_83" type="car" route="w_s" depart="221" />
    <vehicle id="w_n_84" type="car" route="w_n" depart="224" />

	<person id="person_32" depart="224"><walk speed="0.6" edges = "W0_C0 C0_N0" />
	</person>    <vehicle id="n_w_85" type="car" route="n_w" depart="225" />
    <vehicle id="e_n_86" type="car" route="e_n" depart="225" />
    <vehicle id="w_e_87" type="car" route="w_e" depart="227" />
    <vehicle id="s_n_88" type="car" route="s_n" depart="230" />
    <vehicle id="w_n_89" type="car" route="w_n" depart="235" />
    <vehicle id="e_n_90" type="car" route="e_n" depart="238" />
    <vehicle id="s_n_bike_91" type="bike" route="s_n_bike" depart="238" />
    <vehicle id="w_s_92" type="car" route="w_s" depart="239" />
    <vehicle id="s_n_93" type="car" route="s_n" depart="239" />
    <vehicle id="w_n_94" type="car" route="w_n" depart="242" />

	<person id="person_33" depart="242"><walk speed="0.6" edges = "S0_C0 C0_N0" />
	</person>
	<person id="person_34" depart="243"><walk speed="0.6" edges = "S0_C0 C0_N0" />
	</person>
	<person id="person_35" depart="248"><walk speed="0.6" edges = "S0_C0 C0_N0" />
	</person>
	<person id="person_36" depart="249"><walk speed="0.6" edges = "W0_C0 C0_N0" />
	</person>    <vehicle id="n_w_95" type="car" route="n_w" depart="251" />
    <vehicle id="e_w_96" type="car" route="e_w" depart="254" />
    <vehicle id="w_e_97" type="car" route="w_e" depart="255" />

	<person id="person_37" depart="256"><walk speed="0.6" edges = "E0_C0 C0_W0" />
	</person>    <vehicle id="s_e_98" type="car" route="s_e" depart="258" />
    <vehicle id="n_s_bike_99" type="bike" route="n_s_bike" depart="258" />

	<person id="person_38" depart="261"><walk speed="0.6" edges = "E0_C0 C0_W0" />
	</person>    <vehicle id="w_e_100" type="car" route="w_e" depart="264" />
    <vehicle id="e_w_101" type="car" route="e_w" depart="266" />

	<person id="person_39" depart="266"><walk speed="0.6" edges = "W0_C0 C0_N0" />
	</person>
	<person id="person_40" depart="267"><walk speed="0.6" edges = "W0_C0 C0_E0" />
	</person>    <vehicle id="n_e_102" type="car" route="n_e" depart="272" />

	<person id="person_41" depart="272"><walk speed="0.6" edges = "W0_C0 C0_N0" />
	</person>    <vehicle id="e_w_103" type="car" route="e_w" depart="274" />
    <vehicle id="e_w_104" type="car" route="e_w" depart="277" />
    <vehicle id="e_w_105" type="car" route="e_w" depart="278" />

	<person id="person_42" depart="279"><walk speed="0.6" edges = "S0_C0 C0_N0" />
	</person>    <vehicle id="n_e_106" type="car" route="n_e" depart="284" />
    <vehicle id="e_w_107" type="car" route="e_w" depart="285" />
    <vehicle id="n_s_108" type="car" route="n_s" depart="290" />

	<person id="person_43" depart="296"><walk speed="0.6" edges = "E0_C0 C0_W0" />
	</person>    <vehicle id="n_s_bike_109" type="bike" route="n_s_bike" depart="297" />
    <vehicle id="w_e_110" type="car" route="w_e" depart="299" />
    <vehicle id="n_s_111" type="car" route="n_s" depart="300" />
    <vehicle id="s_n_bike_112" type="bike" route="s_n_bike" depart="302" />

	<person id="person_44" depart="304"><walk speed="0.6" edges = "E0_C0 C0_W0" />
	</person>    <vehicle id="e_w_113" type="car" route="e_w" depart="306" />

	<person id="person_45" depart="310"><walk speed="0.6" edges = "E0_C0 C0_W0" />
	</person>
	<person id="person_46" depart="315"><walk speed="0.6" edges = "E0_C0 C0_W0" />
	</person>    <vehicle id="e_n_114" type="car" route="e_n" depart="321" />
    <vehicle id="n_s_bike_115" type="bike" route="n_s_bike" depart="321" />

	<person id="person_47" depart="322"><walk speed="0.6" edges = "W0_C0 C0_E0" />
	</person>
	<person id="person_48" depart="325"><walk speed="0.6" edges = "W0_C0 C0_N0" />
	</person>    <vehicle id="n_w_116" type="car" route="n_w" depart="329" />
    <vehicle id="s_n_117" type="car" route="s_n" depart="330" />

	<person id="person_49" depart="338"><walk speed="0.6" edges = "W0_C0 C0_E0" />
	</person>    <vehicle id="n_s_bike_118" type="bike" route="n_s_bike" depart="339" />
    <vehicle id="n_s_bike_119" type="bike" route="n_s_bike" depart="341" />

	<person id="person_50" depart="341"><walk speed="0.6" edges = "N0_C0 C0_S0" />
	</person>    <vehicle id="e_w_120" type="car" route="e_w" depart="343" />
    <vehicle id="s_n_bike_121" type="bike" route="s_n_bike" depart="343" />

	<person id="person_51" depart="344"><walk speed="0.6" edges = "E0_C0 C0_W0" />
	</person>
	<person id="person_52" depart="347"><walk speed="0.6" edges = "E0_C0 C0_W0" />
	</person>    <vehicle id="n_w_122" type="car" route="n_w" depart="350" />

	<person id="person_53" depart="351"><walk speed="0.6" edges = "S0_C0 C0_N0" />
	</person>    <vehicle id="n_w_123" type="car" route="n_w" depart="353" />
    <vehicle id="n_s_bike_124" type="bike" route="n_s_bike" depart="354" />

	<person id="person_54" depart="354"><walk speed="0.6" edges = "W0_C0 C0_N0" />
	</person>
	<person id="person_55" depart="359"><walk speed="0.6" edges = "N0_C0 C0_S0" />
	</person>    <vehicle id="e_w_125" type="car" route="e_w" depart="361" />

	<person id="person_56" depart="361"><walk speed="0.6" edges = "E0_C0 C0_W0" />
	</person>    <vehicle id="e_w_126" type="car" route="e_w" depart="363" />
    <vehicle id="e_n_127" type="car" route="e_n" depart="364" />
    <vehicle id="n_w_128" type="car" route="n_w" depart="367" />

	<person id="person_57" depart="367"><walk speed="0.6" edges = "E0_C0 C0_W0" />
	</person>    <vehicle id="e_w_129" type="car" route="e_w" depart="368" />
    <vehicle id="w_e_130" type="car" route="w_e" depart="369" />
    <vehicle id="e_s_131" type="car" route="e_s" depart="373" />
    <vehicle id="n_e_132" type="car" route="n_e" depart="374" />

	<person id="person_58" depart="375"><walk speed="0.6" edges = "W0_C0 C0_N0" />
	</person>    <vehicle id="n_s_bike_133" type="bike" route="n_s_bike" depart="376" />
    <vehicle id="w_e_134" type="car" route="w_e" depart="378" />
    <vehicle id="n_s_bike_135" type="bike" route="n_s_bike" depart="378" />
    <vehicle id="w_n_136" type="car" route="w_n" depart="380" />

	<person id="person_59" depart="381"><walk speed="0.6" edges = "W0_C0 C0_N0" />
	</person>    <vehicle id="w_e_137" type="car" route="w_e" depart="382" />

	<person id="person_60" depart="383"><walk speed="0.6" edges = "W0_C0 C0_E0" />
	</person>    <vehicle id="n_s_bike_138" type="bike" route="n_s_bike" depart="387" />
    <vehicle id="s_n_139" type="car" route="s_n" depart="391" />
    <vehicle id="w_e_140" type="car" route="w_e" depart="392" />
    <vehicle id="n_s_bike_141" type="bike" route="n_s_bike" depart="395" />

	<person id="person_61" depart="397"><walk speed="0.6" edges = "S0_C0 C0_N0" />
	</person>    <vehicle id="s_n_bike_142" type="bike" route="s_n_bike" depart="398" />

	<person id="person_62" depart="399"><walk speed="0.6" edges = "E0_C0 C0_W0" />
	</person>    <vehicle id="e_w_143" type="car" route="e_w" depart="401" />
    <vehicle id="e_n_144" type="car" route="e_n" depart="404" />

	<person id="person_63" depart="406"><walk speed="0.6" edges = "S0_C0 C0_N0" />
	</person>    <vehicle id="n_e_145" type="car" route="n_e" depart="410" />
    <vehicle id="e_w_146" type="car" route="e_w" depart="414" />
    <vehicle id="e_s_147" type="car" route="e_s" depart="417" />

	<person id="person_64" depart="417"><walk speed="0.6" edges = "E0_C0 C0_W0" />
	</person>    <vehicle id="w_n_148" type="car" route="w_n" depart="419" />

	<person id="person_65" depart="420"><walk speed="0.6" edges = "N0_C0 C0_S0" />
	</person>    <vehicle id="e_w_bus_149" type="bus" route="e_w_bus" depart="422" />

	<person id="person_66" depart="422"><walk speed="0.6" edges = "W0_C0 C0_E0" />
	</person>    <vehicle id="w_e_150" type="car" route="w_e" depart="423" />

	<person id="person_67" depart="423"><walk speed="0.6" edges = "W0_C0 C0_E0" />
	</person>    <vehicle id="n_w_151" type="car" route="n_w" depart="425" />

	<person id="person_68" depart="426"><walk speed="0.6" edges = "E0_C0 C0_W0" />
	</person>
	<person id="person_69" depart="427"><walk speed="0.6" edges = "W0_C0 C0_N0" />
	</person>    <vehicle id="n_w_152" type="car" route="n_w" depart="432" />
    <vehicle id="e_s_153" type="car" route="e_s" depart="435" />
    <vehicle id="e_w_154" type="car" route="e_w" depart="436" />
    <vehicle id="n_w_155" type="car" route="n_w" depart="437" />
    <vehicle id="s_w_156" type="car" route="s_w" depart="437" />

	<person id="person_70" depart="439"><walk speed="0.6" edges = "N0_C0 C0_S0" />
	</person>    <vehicle id="e_w_157" type="car" route="e_w" depart="440" />

	<person id="person_71" depart="443"><walk speed="0.6" edges = "S0_C0 C0_N0" />
	</person>    <vehicle id="e_w_158" type="car" route="e_w" depart="444" />
    <vehicle id="n_e_159" type="car" route="n_e" depart="448" />
    <vehicle id="w_e_160" type="car" route="w_e" depart="451" />
    <vehicle id="w_n_161" type="car" route="w_n" depart="451" />
    <vehicle id="e_n_162" type="car" route="e_n" depart="453" />

	<person id="person_72" depart="457"><walk speed="0.6" edges = "W0_C0 C0_E0" />
	</person>    <vehicle id="n_w_163" type="car" route="n_w" depart="459" />

	<person id="person_73" depart="459"><walk speed="0.6" edges = "W0_C0 C0_N0" />
	</person>    <vehicle id="w_s_164" type="car" route="w_s" depart="462" />
    <vehicle id="e_w_165" type="car" route="e_w" depart="462" />

	<person id="person_74" depart="464"><walk speed="0.6" edges = "W0_C0 C0_E0" />
	</person>    <vehicle id="s_n_bike_166" type="bike" route="s_n_bike" depart="465" />

	<person id="person_75" depart="466"><walk speed="0.6" edges = "E0_C0 C0_W0" />
	</person>    <vehicle id="w_n_167" type="car" route="w_n" depart="467" />

	<person id="person_76" depart="468"><walk speed="0.6" edges = "E0_C0 C0_W0" />
	</person>    <vehicle id="w_s_168" type="car" route="w_s" depart="469" />
    <vehicle id="n_s_bike_169" type="bike" route="n_s_bike" depart="478" />

	<person id="person_77" depart="481"><walk speed="0.6" edges = "E0_C0 C0_W0" />
	</person>    <vehicle id="s_w_170" type="car" route="s_w" depart="483" />
    <vehicle id="e_s_171" type="car" route="e_s" depart="490" />

	<person id="person_78" depart="494"><walk speed="0.6" edges = "W0_C0 C0_E0" />
	</person>    <vehicle id="e_w_172" type="car" route="e_w" depart="497" />
    <vehicle id="n_s_bike_173" type="bike" route="n_s_bike" depart="500" />

	<person id="person_79" depart="502"><walk speed="0.6" edges = "W0_C0 C0_N0" />
	</person>
	<person id="person_80" depart="503"><walk speed="0.6" edges = "S0_C0 C0_N0" />
	</person>    <vehicle id="n_s_bike_174" type="bike" route="n_s_bike" depart="505" />
    <vehicle id="n_s_175" type="car" route="n_s" depart="508" />

	<person id="person_81" depart="512"><walk speed="0.6" edges = "N0_C0 C0_S0" />
	</person>
	<person id="person_82" depart="514"><walk speed="0.6" edges = "N0_C0 C0_S0" />
	</person>    <vehicle id="w_s_176" type="car" route="w_s" depart="516" />
    <vehicle id="w_e_177" type="car" route="w_e" depart="522" />
    <vehicle id="n_w_178" type="car" route="n_w" depart="525" />
    <vehicle id="e_s_179" type="car" route="e_s" depart="527" />
    <vehicle id="w_n_180" type="car" route="w_n" depart="529" />
    <vehicle id="e_w_181" type="car" route="e_w" depart="530" />

	<person id="person_83" depart="530"><walk speed="0.6" edges = "W0_C0 C0_E0" />
	</person>    <vehicle id="s_w_182" type="car" route="s_w" depart="531" />
    <vehicle id="w_s_183" type="car" route="w_s" depart="537" />
    <vehicle id="e_w_184" type="car" route="e_w" depart="541" />

	<person id="person_84" depart="544"><walk speed="0.6" edges = "S0_C0 C0_N0" />
	</person>    <vehicle id="w_e_185" type="car" route="w_e" depart="546" />
    <vehicle id="s_n_186" type="car" route="s_n" depart="548" />

	<person id="person_85" depart="550"><walk speed="0.6" edges = "W0_C0 C0_E0" />
	</person>    <vehicle id="w_n_187" type="car" route="w_n" depart="552" />

	<person id="person_86" depart="553"><walk speed="0.6" edges = "W0_C0 C0_N0" />
	</person>
	<person id="person_87" depart="553"><walk speed="0.6" edges = "N0_C0 C0_S0" />
	</person>
	<person id="person_88" depart="553"><walk speed="0.6" edges = "S0_C0 C0_N0" />
	</person>
	<person id="person_89" depart="554"><walk speed="0.6" edges = "W0_C0 C0_E0" />
	</person>    <vehicle id="w_n_188" type="car" route="w_n" depart="557" />

	<person id="person_90" depart="559"><walk speed="0.6" edges = "E0_C0 C0_W0" />
	</person>
	<person id="person_91" depart="564"><walk speed="0.6" edges = "S0_C0 C0_N0" />
	</person>    <vehicle id="e_n_189" type="car" route="e_n" depart="566" />
    <vehicle id="w_e_190" type="car" route="w_e" depart="568" />
    <vehicle id="s_w_191" type="car" route="s_w" depart="576" />
    <vehicle id="e_w_192" type="car" route="e_w" depart="576" />
    <vehicle id="n_e_193" type="car" route="n_e" depart="580" />
    <vehicle id="w_s_194" type="car" route="w_s" depart="582" />
    <vehicle id="e_w_195" type="car" route="e_w" depart="582" />
    <vehicle id="w_e_196" type="car" route="w_e" depart="586" />

	<person id="person_92" depart="587"><walk speed="0.6" edges = "E0_C0 C0_W0" />
	</person>    <vehicle id="n_e_197" type="car" route="n_e" depart="588" />
    <vehicle id="w_e_198" type="car" route="w_e" depart="595" />
    <vehicle id="s_n_199" type="car" route="s_n" depart="598" />
    <vehicle id="s_n_bike_200" type="bike" route="s_n_bike" depart="601" />

	<person id="person_93" depart="602"><walk speed="0.6" edges = "W0_C0 C0_E0" />
	</person>    <vehicle id="w_e_201" type="car" route="w_e" depart="603" />
    <vehicle id="e_w_202" type="car" route="e_w" depart="604" />
    <vehicle id="e_s_203" type="car" route="e_s" depart="604" />
    <vehicle id="s_w_204" type="car" route="s_w" depart="605" />
    <vehicle id="n_e_205" type="car" route="n_e" depart="606" />
    <vehicle id="e_w_206" type="car" route="e_w" depart="607" />

	<person id="person_94" depart="607"><walk speed="0.6" edges = "W0_C0 C0_E0" />
	</person>    <vehicle id="n_s_207" type="car" route="n_s" depart="611" />
    <vehicle id="w_s_208" type="car" route="w_s" depart="613" />
    <vehicle id="w_s_209" type="car" route="w_s" depart="615" />
    <vehicle id="e_w_210" type="car" route="e_w" depart="618" />

	<person id="person_95" depart="618"><walk speed="0.6" edges = "N0_C0 C0_S0" />
	</person>    <vehicle id="s_w_211" type="car" route="s_w" depart="619" />
    <vehicle id="s_w_212" type="car" route="s_w" depart="622" />
    <vehicle id="e_w_213" type="car" route="e_w" depart="622" />
    <vehicle id="e_s_214" type="car" route="e_s" depart="622" />
    <vehicle id="s_n_bike_215" type="bike" route="s_n_bike" depart="622" />
    <vehicle id="n_w_216" type="car" route="n_w" depart="629" />

	<person id="person_96" depart="629"><walk speed="0.6" edges = "N0_C0 C0_S0" />
	</person>    <vehicle id="e_w_217" type="car" route="e_w" depart="632" />
    <vehicle id="w_e_218" type="car" route="w_e" depart="633" />
    <vehicle id="s_w_219" type="car" route="s_w" depart="636" />
    <vehicle id="n_s_bike_220" type="bike" route="n_s_bike" depart="636" />
    <vehicle id="w_e_221" type="car" route="w_e" depart="639" />

	<person id="person_97" depart="642"><walk speed="0.6" edges = "W0_C0 C0_E0" />
	</person>    <vehicle id="s_e_222" type="car" route="s_e" depart="644" />

	<person id="person_98" depart="650"><walk speed="0.6" edges = "S0_C0 C0_N0" />
	</person>    <vehicle id="w_s_223" type="car" route="w_s" depart="652" />
    <vehicle id="e_s_224" type="car" route="e_s" depart="653" />

	<person id="person_99" depart="653"><walk speed="0.6" edges = "S0_C0 C0_N0" />
	</person>    <vehicle id="s_n_bike_225" type="bike" route="s_n_bike" depart="655" />
    <vehicle id="w_e_226" type="car" route="w_e" depart="656" />
    <vehicle id="n_s_bike_227" type="bike" route="n_s_bike" depart="657" />
    <vehicle id="e_w_228" type="car" route="e_w" depart="659" />
    <vehicle id="e_w_229" type="car" route="e_w" depart="660" />
    <vehicle id="w_s_230" type="car" route="w_s" depart="662" />
    <vehicle id="e_n_231" type="car" route="e_n" depart="666" />
    <vehicle id="e_w_232" type="car" route="e_w" depart="667" />
    <vehicle id="w_n_233" type="car" route="w_n" depart="671" />
    <vehicle id="w_e_234" type="car" route="w_e" depart="672" />

	<person id="person_100" depart="674"><walk speed="0.6" edges = "W0_C0 C0_N0" />
	</person>    <vehicle id="e_w_235" type="car" route="e_w" depart="678" />

	<person id="person_101" depart="681"><walk speed="0.6" edges = "N0_C0 C0_S0" />
	</person>    <vehicle id="s_n_bike_236" type="bike" route="s_n_bike" depart="685" />

	<person id="person_102" depart="685"><walk speed="0.6" edges = "N0_C0 C0_S0" />
	</person>    <vehicle id="n_s_237" type="car" route="n_s" depart="689" />
    <vehicle id="w_e_238" type="car" route="w_e" depart="694" />

	<person id="person_103" depart="694"><walk speed="0.6" edges = "N0_C0 C0_S0" />
	</person>
	<person id="person_104" depart="694"><walk speed="0.6" edges = "E0_C0 C0_W0" />
	</person>    <vehicle id="w_e_239" type="car" route="w_e" depart="695" />

	<person id="person_105" depart="696"><walk speed="0.6" edges = "S0_C0 C0_N0" />
	</person>    <vehicle id="w_s_240" type="car" route="w_s" depart="697" />
    <vehicle id="w_e_241" type="car" route="w_e" depart="698" />
    <vehicle id="e_s_242" type="car" route="e_s" depart="698" />
    <vehicle id="n_s_243" type="car" route="n_s" depart="699" />
    <vehicle id="w_n_244" type="car" route="w_n" depart="705" />
    <vehicle id="w_n_245" type="car" route="w_n" depart="706" />
    <vehicle id="e_n_246" type="car" route="e_n" depart="708" />
    <vehicle id="w_e_247" type="car" route="w_e" depart="709" />
    <vehicle id="w_n_248" type="car" route="w_n" depart="711" />

	<person id="person_106" depart="713"><walk speed="0.6" edges = "W0_C0 C0_E0" />
	</person>
	<person id="person_107" depart="714"><walk speed="0.6" edges = "N0_C0 C0_S0" />
	</person>    <vehicle id="w_e_249" type="car" route="w_e" depart="715" />
    <vehicle id="n_w_250" type="car" route="n_w" depart="717" />
    <vehicle id="w_e_251" type="car" route="w_e" depart="718" />
    <vehicle id="e_w_252" type="car" route="e_w" depart="718" />
    <vehicle id="w_e_253" type="car" route="w_e" depart="719" />
    <vehicle id="e_w_254" type="car" route="e_w" depart="724" />
    <vehicle id="n_s_bike_255" type="bike" route="n_s_bike" depart="724" />
    <vehicle id="e_w_256" type="car" route="e_w" depart="725" />

	<person id="person_108" depart="725"><walk speed="0.6" edges = "S0_C0 C0_N0" />
	</person>    <vehicle id="w_n_257" type="car" route="w_n" depart="727" />

	<person id="person_109" depart="728"><walk speed="0.6" edges = "E0_C0 C0_W0" />
	</person>    <vehicle id="w_n_258" type="car" route="w_n" depart="730" />
    <vehicle id="n_s_bike_259" type="bike" route="n_s_bike" depart="733" />
    <vehicle id="s_w_260" type="car" route="s_w" depart="739" />
    <vehicle id="e_w_261" type="car" route="e_w" depart="739" />
    <vehicle id="e_n_262" type="car" route="e_n" depart="740" />
    <vehicle id="e_w_263" type="car" route="e_w" depart="741" />
    <vehicle id="n_s_bike_264" type="bike" route="n_s_bike" depart="741" />

	<person id="person_110" depart="741"><walk speed="0.6" edges = "S0_C0 C0_N0" />
	</person>    <vehicle id="n_s_bike_265" type="bike" route="n_s_bike" depart="749" />
    <vehicle id="w_e_266" type="car" route="w_e" depart="750" />

	<person id="person_111" depart="753"><walk speed="0.6" edges = "W0_C0 C0_E0" />
	</person>    <vehicle id="s_n_bike_267" type="bike" route="s_n_bike" depart="754" />
    <vehicle id="e_w_268" type="car" route="e_w" depart="757" />

	<person id="person_112" depart="761"><walk speed="0.6" edges = "W0_C0 C0_E0" />
	</person>
	<person id="person_113" depart="763"><walk speed="0.6" edges = "S0_C0 C0_N0" />
	</person>
	<person id="person_114" depart="764"><walk speed="0.6" edges = "W0_C0 C0_N0" />
	</person>
	<person id="person_115" depart="766"><walk speed="0.6" edges = "W0_C0 C0_E0" />
	</person>    <vehicle id="w_e_269" type="car" route="w_e" depart="767" />
    <vehicle id="w_e_270" type="car" route="w_e" depart="770" />
    <vehicle id="n_s_271" type="car" route="n_s" depart="770" />

	<person id="person_116" depart="772"><walk speed="0.6" edges = "W0_C0 C0_E0" />
	</person>    <vehicle id="e_w_272" type="car" route="e_w" depart="776" />
    <vehicle id="w_n_273" type="car" route="w_n" depart="778" />