<?xml version="1.0" encoding="UTF-8"?>

<!-- generated on 11/16/18 17:34:29 by Eclipse SUMO netedit Version 1.0.1
<configuration xmlns:xsi="http://www.w3.org/2001/XMLSchema-instance" xsi:noNamespaceSchemaLocation="http://sumo.dlr.de/xsd/netconvertConfiguration.xsd">

    <output>
        <output-file value="C:\Users\micha\Desktop\crossinRoadSimulator\data\cross.net.xml"/>
        <plain-output-prefix value="C:\Users\micha\Desktop\crossinRoadSimulator\data\cross"/>
    </output>

    <processing>
        <offset.disable-normalization value="true"/>
    </processing>

    <junctions>
        <no-internal-links value="false"/>
        <no-turnarounds value="true"/>
    </junctions>

</configuration>
-->

<nodes version="1.0" xmlns:xsi="http://www.w3.org/2001/XMLSchema-instance" xsi:noNamespaceSchemaLocation="http://sumo.dlr.de/xsd/nodes_file.xsd">
    <location netOffset="0.00,0.00" convBoundary="-100.00,-100.00,100.00,100.00" origBoundary="10000000000.00,10000000000.00,-10000000000.00,-10000000000.00" projParameter="!"/>

    <node id="C0" x="0.00" y="0.00" type="traffic_light" tl="C0"/>
    <node id="E0" x="100.00" y="0.00" type="dead_end"/>
    <node id="N0" x="0.00" y="100.00" type="dead_end"/>
    <node id="S0" x="0.00" y="-100.00" type="dead_end"/>
    <node id="W0" x="-100.00" y="0.00" type="priority"/>
    <node id="gneJ16" x="0.00" y="0.00" type="dead_end"/>
</nodes>
