<?xml version="1.0" encoding="UTF-8"?>

<!-- generated on 11/17/18 11:17:23 by Eclipse SUMO netedit Version 1.0.1
<configuration xmlns:xsi="http://www.w3.org/2001/XMLSchema-instance" xsi:noNamespaceSchemaLocation="http://sumo.dlr.de/xsd/netconvertConfiguration.xsd">

    <input>
        <sumo-net-file value="C:\Users\micha\Desktop\crosssim\data\cross.net.xml"/>
    </input>

    <output>
        <output-file value="C:\Users\micha\Desktop\crosssim\data\cross2.net.xml"/>
    </output>

    <processing>
        <offset.disable-normalization value="true"/>
        <lefthand value="false"/>
    </processing>

    <junctions>
        <no-internal-links value="false"/>
        <no-turnarounds value="true"/>
        <junctions.corner-detail value="5"/>
        <junctions.limit-turn-speed value="5.5"/>
        <rectangular-lane-cut value="false"/>
    </junctions>

    <pedestrian>
        <walkingareas value="false"/>
    </pedestrian>

</configuration>
-->

<net version="1.0" junctionCornerDetail="5" limitTurnSpeed="5.50" xmlns:xsi="http://www.w3.org/2001/XMLSchema-instance" xsi:noNamespaceSchemaLocation="http://sumo.dlr.de/xsd/net_file.xsd">

    <location netOffset="0.00,0.00" convBoundary="-100.00,-100.00,300.00,100.00" origBoundary="-10000000000.00,-10000000000.00,10000000000.00,10000000000.00" projParameter="!"/>

    <edge id=":C0_0" function="internal">
        <lane id=":C0_0_0" index="0" allow="bicycle" speed="13.89" length="19.80" width="2.00" shape="-4.20,9.90 -4.20,-9.90"/>
    </edge>
    <edge id=":C0_1" function="internal">
        <lane id=":C0_1_0" index="0" disallow="bicycle pedestrian" speed="6.92" length="2.79" width="2.00" shape="-1.60,9.90 -2.04,7.41 -2.20,7.20"/>
    </edge>
    <edge id=":C0_2" function="internal">
        <lane id=":C0_2_0" index="0" disallow="pedestrian" speed="13.89" length="19.80" shape="-1.60,9.90 -1.60,-9.90"/>
    </edge>
    <edge id=":C0_3" function="internal">
        <lane id=":C0_3_0" index="0" disallow="pedestrian" speed="8.85" length="7.09" shape="-1.60,9.90 -0.96,4.87 -0.00,3.09"/>
    </edge>
    <edge id=":C0_16" function="internal">
        <lane id=":C0_16_0" index="0" speed="6.92" length="7.55" width="2.00" shape="-2.20,7.20 -3.38,5.63 -5.59,4.56 -8.70,4.20"/>
    </edge>
    <edge id=":C0_17" function="internal">
        <lane id=":C0_17_0" index="0" speed="8.85" length="10.50" shape="-0.00,3.09 0.98,1.28 4.19,-0.88 8.70,-1.60"/>
    </edge>
    <edge id=":C0_4" function="internal">
        <lane id=":C0_4_0" index="0" disallow="pedestrian" speed="6.78" length="5.10" shape="8.70,4.80 5.59,5.12 3.78,5.90"/>
    </edge>
    <edge id=":C0_5" function="internal">
        <lane id=":C0_5_0" index="0" disallow="bicycle pedestrian" speed="13.89" length="17.41" width="2.00" shape="8.70,4.80 -8.70,4.20"/>
        <lane id=":C0_5_1" index="1" disallow="bicycle pedestrian" speed="13.89" length="17.41" shape="8.70,1.60 -8.70,1.60"/>
    </edge>
    <edge id=":C0_7" function="internal">
        <lane id=":C0_7_0" index="0" disallow="pedestrian" speed="8.85" length="6.15" shape="8.70,1.60 4.19,0.88 2.88,-0.00"/>
    </edge>
    <edge id=":C0_18" function="internal">
        <lane id=":C0_18_0" index="0" speed="6.78" length="4.79" shape="3.78,5.90 3.37,6.07 2.04,7.67 1.60,9.90"/>
    </edge>
    <edge id=":C0_19" function="internal">
        <lane id=":C0_19_0" index="0" speed="8.85" length="11.44" shape="2.88,-0.00 0.98,-1.27 -0.96,-4.87 -1.60,-9.90"/>
    </edge>
    <edge id=":C0_8" function="internal">
        <lane id=":C0_8_0" index="0" allow="bicycle" speed="13.89" length="19.80" width="2.00" shape="4.20,-9.90 4.20,9.90"/>
    </edge>
    <edge id=":C0_9" function="internal">
        <lane id=":C0_9_0" index="0" disallow="pedestrian" speed="7.53" length="4.00" shape="1.60,-9.90 2.04,-6.27 2.20,-5.96"/>
    </edge>
    <edge id=":C0_10" function="internal">
        <lane id=":C0_10_0" index="0" disallow="pedestrian" speed="13.89" length="19.80" shape="1.60,-9.90 1.60,9.90"/>
    </edge>
    <edge id=":C0_11" function="internal">
        <lane id=":C0_11_0" index="0" disallow="bicycle pedestrian" speed="8.85" length="7.09" shape="1.60,-9.90 0.96,-4.87 0.00,-3.09"/>
    </edge>
    <edge id=":C0_20" function="internal">
        <lane id=":C0_20_0" index="0" speed="7.53" length="8.43" shape="2.20,-5.96 3.38,-3.67 5.59,-2.12 8.70,-1.60"/>
    </edge>
    <edge id=":C0_21" function="internal">
        <lane id=":C0_21_0" index="0" speed="8.85" length="10.50" shape="0.00,-3.09 -0.98,-1.28 -4.19,0.88 -8.70,1.60"/>
    </edge>
    <edge id=":C0_12" function="internal">
        <lane id=":C0_12_0" index="0" disallow="pedestrian" speed="6.78" length="5.10" shape="-8.70,-4.80 -5.59,-5.12 -3.78,-5.90"/>
    </edge>
    <edge id=":C0_13" function="internal">
        <lane id=":C0_13_0" index="0" disallow="pedestrian" speed="13.89" length="17.40" shape="-8.70,-4.80 8.70,-4.80"/>
        <lane id=":C0_13_1" index="1" disallow="pedestrian" speed="13.89" length="17.40" shape="-8.70,-1.60 8.70,-1.60"/>
    </edge>
    <edge id=":C0_15" function="internal">
        <lane id=":C0_15_0" index="0" disallow="pedestrian" speed="8.85" length="6.15" shape="-8.70,-1.60 -4.19,-0.88 -2.88,0.00"/>
    </edge>
    <edge id=":C0_22" function="internal">
        <lane id=":C0_22_0" index="0" speed="6.78" length="4.79" shape="-3.78,-5.90 -3.37,-6.07 -2.04,-7.67 -1.60,-9.90"/>
    </edge>
    <edge id=":C0_23" function="internal">
        <lane id=":C0_23_0" index="0" speed="8.85" length="11.44" shape="-2.88,0.00 -0.98,1.27 0.96,4.87 1.60,9.90"/>
    </edge>
    <edge id=":C0_c0" function="crossing" crossingEdges="C0_N0 N0_C0">
        <lane id=":C0_c0_0" index="0" allow="pedestrian" speed="1.00" length="10.40" width="4.00" shape="5.20,7.90 -5.20,7.90"/>
    </edge>
    <edge id=":C0_c1" function="crossing" crossingEdges="C0_E0 E0_C0">
        <lane id=":C0_c1_0" index="0" allow="pedestrian" speed="1.00" length="12.80" width="4.00" shape="6.70,-6.40 6.70,6.40"/>
    </edge>
    <edge id=":C0_c2" function="crossing" crossingEdges="C0_S0 S0_C0">
        <lane id=":C0_c2_0" index="0" allow="pedestrian" speed="1.00" length="10.40" width="4.00" shape="-5.20,-7.90 5.20,-7.90"/>
    </edge>
    <edge id=":C0_c3" function="crossing" crossingEdges="C0_W0 W0_C0">
        <lane id=":C0_c3_0" index="0" allow="pedestrian" speed="1.00" length="11.60" width="4.00" shape="-6.70,5.20 -6.70,-6.40"/>
    </edge>
    <edge id=":C0_w0" function="walkingarea">
        <lane id=":C0_w0_0" index="0" allow="pedestrian" speed="1.00" length="3.44" width="4.00" shape="-8.70,5.20 -8.70,7.20 -7.20,9.90 -5.20,9.90 -5.30,8.46 -5.59,7.29 -6.08,6.37 -6.76,5.72 -7.63,5.33"/>
    </edge>
    <edge id=":C0_w1" function="walkingarea">
        <lane id=":C0_w1_0" index="0" allow="pedestrian" speed="1.00" length="2.87" width="4.00" shape="5.20,9.90 7.20,9.90 8.70,8.40 8.70,6.40 7.63,6.50 6.76,6.79 6.08,7.27 5.59,7.96 5.30,8.83"/>
    </edge>
    <edge id=":C0_w2" function="walkingarea">
        <lane id=":C0_w2_0" index="0" allow="pedestrian" speed="1.00" length="2.87" width="4.00" shape="8.70,-6.40 8.70,-8.40 7.20,-9.90 5.20,-9.90 5.30,-8.83 5.59,-7.96 6.08,-7.28 6.76,-6.79 7.63,-6.50"/>
    </edge>
    <edge id=":C0_w3" function="walkingarea">
        <lane id=":C0_w3_0" index="0" allow="pedestrian" speed="1.00" length="2.87" width="4.00" shape="-5.20,-9.90 -7.20,-9.90 -8.70,-8.40 -8.70,-6.40 -7.63,-6.50 -6.76,-6.79 -6.08,-7.27 -5.59,-7.96 -5.30,-8.83"/>
    </edge>
    <edge id=":C1_0" function="internal">
        <lane id=":C1_0_0" index="0" disallow="pedestrian" speed="6.51" length="9.03" shape="198.40,10.40 198.05,7.95 197.00,6.20 195.25,5.15 192.80,4.80"/>
    </edge>
    <edge id=":C1_1" function="internal">
        <lane id=":C1_1_0" index="0" disallow="pedestrian" speed="13.89" length="20.80" shape="198.40,10.40 198.40,-10.40"/>
    </edge>
    <edge id=":C1_2" function="internal">
        <lane id=":C1_2_0" index="0" disallow="pedestrian" speed="8.67" length="16.85" shape="198.40,10.40 198.95,5.15 200.60,1.40 203.35,-0.85 207.20,-1.60"/>
    </edge>
    <edge id=":C1_3" function="internal">
        <lane id=":C1_3_0" index="0" disallow="pedestrian" speed="6.51" length="4.75" shape="207.20,4.80 204.75,5.15 203.00,6.20 202.88,6.40"/>
    </edge>
    <edge id=":C1_4" function="internal">
        <lane id=":C1_4_0" index="0" disallow="pedestrian" speed="13.89" length="14.40" shape="207.20,4.80 192.80,4.80"/>
        <lane id=":C1_4_1" index="1" disallow="pedestrian" speed="13.89" length="14.40" shape="207.20,1.60 192.80,1.60"/>
    </edge>
    <edge id=":C1_6" function="internal">
        <lane id=":C1_6_0" index="0" disallow="pedestrian" speed="8.67" length="5.26" shape="207.20,1.60 203.35,0.85 202.31,-0.00"/>
    </edge>
    <edge id=":C1_14" function="internal">
        <lane id=":C1_14_0" index="0" speed="6.51" length="4.28" shape="202.88,6.40 201.95,7.95 201.60,10.40"/>
    </edge>
    <edge id=":C1_15" function="internal">
        <lane id=":C1_15_0" index="0" speed="8.67" length="11.59" shape="202.31,-0.00 200.60,-1.40 198.95,-5.15 198.40,-10.40"/>
    </edge>
    <edge id=":C1_7" function="internal">
        <lane id=":C1_7_0" index="0" disallow="pedestrian" speed="6.51" length="9.03" shape="201.60,-10.40 201.95,-7.95 203.00,-6.20 204.75,-5.15 207.20,-4.80"/>
    </edge>
    <edge id=":C1_8" function="internal">
        <lane id=":C1_8_0" index="0" disallow="pedestrian" speed="13.89" length="20.80" shape="201.60,-10.40 201.60,10.40"/>
    </edge>
    <edge id=":C1_9" function="internal">
        <lane id=":C1_9_0" index="0" disallow="pedestrian" speed="8.67" length="16.85" shape="201.60,-10.40 201.05,-5.15 199.40,-1.40 196.65,0.85 192.80,1.60"/>
    </edge>
    <edge id=":C1_10" function="internal">
        <lane id=":C1_10_0" index="0" disallow="pedestrian" speed="6.51" length="4.75" shape="192.80,-4.80 195.25,-5.15 197.00,-6.20 197.12,-6.40"/>
    </edge>
    <edge id=":C1_11" function="internal">
        <lane id=":C1_11_0" index="0" disallow="pedestrian" speed="13.89" length="14.40" shape="192.80,-4.80 207.20,-4.80"/>
        <lane id=":C1_11_1" index="1" disallow="pedestrian" speed="13.89" length="14.40" shape="192.80,-1.60 207.20,-1.60"/>
    </edge>
    <edge id=":C1_13" function="internal">
        <lane id=":C1_13_0" index="0" disallow="pedestrian" speed="8.67" length="5.26" shape="192.80,-1.60 196.65,-0.85 197.69,0.00"/>
    </edge>
    <edge id=":C1_16" function="internal">
        <lane id=":C1_16_0" index="0" speed="6.51" length="4.28" shape="197.12,-6.40 198.05,-7.95 198.40,-10.40"/>
    </edge>
    <edge id=":C1_17" function="internal">
        <lane id=":C1_17_0" index="0" speed="8.67" length="11.59" shape="197.69,0.00 199.40,1.40 201.05,5.15 201.60,10.40"/>
    </edge>
    <edge id=":C1_c0" function="crossing" crossingEdges="C1_N1 N1_C1">
        <lane id=":C1_c0_0" index="0" allow="pedestrian" speed="1.00" length="6.40" width="4.00" shape="203.20,8.40 196.80,8.40"/>
    </edge>
    <edge id=":C1_c1" function="crossing" crossingEdges="C1_E1 E1_C1">
        <lane id=":C1_c1_0" index="0" allow="pedestrian" speed="1.00" length="12.80" width="4.00" shape="205.20,-6.40 205.20,6.40"/>
    </edge>
    <edge id=":C1_c2" function="crossing" crossingEdges="gneE13 S1_C1">
        <lane id=":C1_c2_0" index="0" allow="pedestrian" speed="1.00" length="6.40" width="4.00" shape="196.80,-8.40 203.20,-8.40"/>
    </edge>
    <edge id=":C1_c3" function="crossing" crossingEdges="C1_E0 E0_C1">
        <lane id=":C1_c3_0" index="0" allow="pedestrian" speed="1.00" length="12.80" width="4.00" shape="194.80,6.40 194.80,-6.40"/>
    </edge>
    <edge id=":C1_w0" function="walkingarea">
        <lane id=":C1_w0_0" index="0" allow="pedestrian" speed="1.00" length="3.30" width="4.00" shape="192.80,6.40 192.80,8.40 194.80,10.40 196.80,10.40 196.69,9.18 196.36,8.18 195.80,7.40 195.02,6.84 194.02,6.51"/>
    </edge>
    <edge id=":C1_w1" function="walkingarea">
        <lane id=":C1_w1_0" index="0" allow="pedestrian" speed="1.00" length="3.30" width="4.00" shape="203.20,10.40 205.20,10.40 207.20,8.40 207.20,6.40 205.98,6.51 204.98,6.84 204.20,7.40 203.64,8.18 203.31,9.18"/>
    </edge>
    <edge id=":C1_w2" function="walkingarea">
        <lane id=":C1_w2_0" index="0" allow="pedestrian" speed="1.00" length="3.30" width="4.00" shape="207.20,-6.40 207.20,-8.40 205.20,-10.40 203.20,-10.40 203.31,-9.18 203.64,-8.18 204.20,-7.40 204.98,-6.84 205.98,-6.51"/>
    </edge>
    <edge id=":C1_w3" function="walkingarea">
        <lane id=":C1_w3_0" index="0" allow="pedestrian" speed="1.00" length="3.30" width="4.00" shape="196.80,-10.40 194.80,-10.40 192.80,-8.40 192.80,-6.40 194.02,-6.51 195.02,-6.84 195.80,-7.40 196.36,-8.18 196.69,-9.18"/>
    </edge>
    <edge id=":E0_0" function="internal">
        <lane id=":E0_0_0" index="0" disallow="pedestrian" speed="13.89" length="0.10" shape="100.00,4.80 100.00,4.80"/>
        <lane id=":E0_0_1" index="1" disallow="pedestrian" speed="13.89" length="0.10" shape="100.00,1.60 100.00,1.60"/>
    </edge>
    <edge id=":E0_2" function="internal">
        <lane id=":E0_2_0" index="0" disallow="pedestrian" speed="13.89" length="0.10" shape="100.00,-4.80 100.00,-4.80"/>
        <lane id=":E0_2_1" index="1" disallow="pedestrian" speed="13.89" length="0.10" shape="100.00,-1.60 100.00,-1.60"/>
    </edge>
    <edge id=":E0_w0" function="walkingarea">
        <lane id=":E0_w0_0" index="0" allow="pedestrian" speed="1.00" length="0.10" width="2.00" shape="100.00,6.40 100.00,8.40 100.00,8.40 100.00,6.40"/>
    </edge>
    <edge id=":E0_w1" function="walkingarea">
        <lane id=":E0_w1_0" index="0" allow="pedestrian" speed="1.00" length="0.10" width="2.00" shape="100.00,-6.40 100.00,-8.40 100.00,-8.40 100.00,-6.40"/>
    </edge>
    <edge id=":E1_w0" function="walkingarea">
        <lane id=":E1_w0_0" index="0" allow="pedestrian" speed="1.00" length="14.80" width="2.00" shape="300.00,6.40 300.00,8.40 300.00,-8.40 300.00,-6.40"/>
    </edge>
    <edge id=":N0_w0" function="walkingarea">
        <lane id=":N0_w0_0" index="0" allow="pedestrian" speed="1.00" length="12.40" width="2.00" shape="-5.20,100.00 -7.20,100.00 7.20,100.00 5.20,100.00"/>
    </edge>
    <edge id=":N1_w0" function="walkingarea">
        <lane id=":N1_w0_0" index="0" allow="pedestrian" speed="1.00" length="8.40" width="2.00" shape="196.80,100.00 194.80,100.00 205.20,100.00 203.20,100.00"/>
    </edge>
    <edge id=":S0_w0" function="walkingarea">
        <lane id=":S0_w0_0" index="0" allow="pedestrian" speed="1.00" length="12.40" width="2.00" shape="5.20,-100.00 7.20,-100.00 -7.20,-100.00 -5.20,-100.00"/>
    </edge>
    <edge id=":S1_w0" function="walkingarea">
        <lane id=":S1_w0_0" index="0" allow="pedestrian" speed="1.00" length="8.40" width="2.00" shape="203.20,-100.00 205.20,-100.00 194.80,-100.00 196.80,-100.00"/>
    </edge>
    <edge id=":W0_0" function="internal">
        <lane id=":W0_0_0" index="0" disallow="pedestrian" speed="4.08" length="6.40" shape="-100.00,1.60 -100.00,-4.80"/>
    </edge>
    <edge id=":W0_1" function="internal">
        <lane id=":W0_1_0" index="0" disallow="pedestrian" speed="3.24" length="3.20" shape="-100.00,1.60 -100.00,-1.60"/>
    </edge>
    <edge id=":W0_w0" function="walkingarea">
        <lane id=":W0_w0_0" index="0" allow="pedestrian" speed="1.00" length="13.60" width="2.00" shape="-100.00,-6.40 -100.00,-8.40 -100.00,7.20 -100.00,5.20"/>
    </edge>
    <edge id=":gneJ18_0" function="internal">
        <lane id=":gneJ18_0_0" index="0" speed="13.89" length="0.14" shape="101.23,-1.03 101.13,-1.13"/>
    </edge>
    <edge id=":gneJ19_0" function="internal">
        <lane id=":gneJ19_0_0" index="0" speed="13.89" length="0.14" shape="101.23,-1.03 101.13,-1.13"/>
    </edge>
    <edge id=":gneJ23_0" function="internal">
        <lane id=":gneJ23_0_0" index="0" speed="13.89" length="0.14" shape="101.23,-1.03 101.13,-1.13"/>
    </edge>
    <edge id=":gneJ24_0" function="internal">
        <lane id=":gneJ24_0_0" index="0" speed="13.89" length="0.14" shape="101.23,-1.03 101.13,-1.13"/>
    </edge>

    <edge id="-gneE11" from="gneJ19" to="gneJ18" priority="-1" shape="100.00,0.00 100.10,0.10">
        <lane id="-gneE11_0" index="0" speed="13.89" length="0.14" shape="101.13,-1.13 101.23,-1.03"/>
    </edge>
    <edge id="-gneE15" from="gneJ24" to="gneJ23" priority="-1" shape="100.00,0.00 100.10,0.10">
        <lane id="-gneE15_0" index="0" speed="13.89" length="0.14" shape="101.13,-1.13 101.23,-1.03"/>
    </edge>
    <edge id="C0_E0" from="C0" to="E0" priority="-1">
        <lane id="C0_E0_0" index="0" allow="pedestrian" speed="13.89" length="91.30" width="2.00" shape="8.70,-7.40 100.00,-7.40"/>
        <lane id="C0_E0_1" index="1" disallow="pedestrian" speed="13.89" length="91.30" shape="8.70,-4.80 100.00,-4.80"/>
        <lane id="C0_E0_2" index="2" disallow="pedestrian" speed="13.89" length="91.30" shape="8.70,-1.60 100.00,-1.60"/>
    </edge>
    <edge id="C0_N0" from="C0" to="N0" priority="-1">
        <lane id="C0_N0_0" index="0" allow="pedestrian" speed="13.89" length="90.10" width="2.00" shape="6.20,9.90 6.20,100.00"/>
        <lane id="C0_N0_1" index="1" allow="bicycle" speed="13.89" length="90.10" width="2.00" shape="4.20,9.90 4.20,100.00"/>
        <lane id="C0_N0_2" index="2" disallow="pedestrian" speed="13.89" length="90.10" shape="1.60,9.90 1.60,100.00"/>
    </edge>
    <edge id="C0_S0" from="C0" to="S0" priority="-1">
        <lane id="C0_S0_0" index="0" allow="pedestrian" speed="13.89" length="90.10" width="2.00" shape="-6.20,-9.90 -6.20,-100.00"/>
        <lane id="C0_S0_1" index="1" allow="bicycle" speed="13.89" length="90.10" width="2.00" shape="-4.20,-9.90 -4.20,-100.00"/>
        <lane id="C0_S0_2" index="2" disallow="pedestrian" speed="13.89" length="90.10" shape="-1.60,-9.90 -1.60,-100.00"/>
    </edge>
    <edge id="C0_W0" from="C0" to="W0" priority="-1">
        <lane id="C0_W0_0" index="0" allow="pedestrian" speed="13.89" length="91.30" width="2.00" shape="-8.70,6.20 -100.00,6.20"/>
        <lane id="C0_W0_1" index="1" disallow="bicycle pedestrian" speed="13.89" length="91.30" width="2.00" shape="-8.70,4.20 -100.00,4.20"/>
        <lane id="C0_W0_2" index="2" disallow="bicycle pedestrian" speed="13.89" length="91.30" shape="-8.70,1.60 -100.00,1.60"/>
    </edge>
    <edge id="C1_E0" from="C1" to="E0" priority="-1">
        <lane id="C1_E0_0" index="0" allow="pedestrian" speed="13.89" length="92.80" width="2.00" shape="192.80,7.40 100.00,7.40"/>
        <lane id="C1_E0_1" index="1" disallow="pedestrian" speed="13.89" length="92.80" shape="192.80,4.80 100.00,4.80"/>
        <lane id="C1_E0_2" index="2" disallow="pedestrian" speed="13.89" length="92.80" shape="192.80,1.60 100.00,1.60"/>
    </edge>
    <edge id="C1_E1" from="C1" to="E1" priority="-1">
        <lane id="C1_E1_0" index="0" allow="pedestrian" speed="13.89" length="92.80" width="2.00" shape="207.20,-7.40 300.00,-7.40"/>
        <lane id="C1_E1_1" index="1" disallow="pedestrian" speed="13.89" length="92.80" shape="207.20,-4.80 300.00,-4.80"/>
        <lane id="C1_E1_2" index="2" disallow="pedestrian" speed="13.89" length="92.80" shape="207.20,-1.60 300.00,-1.60"/>
    </edge>
    <edge id="C1_N1" from="C1" to="N1" priority="-1">
        <lane id="C1_N1_0" index="0" allow="pedestrian" speed="13.89" length="89.60" width="2.00" shape="204.20,10.40 204.20,100.00"/>
        <lane id="C1_N1_1" index="1" disallow="pedestrian" speed="13.89" length="89.60" shape="201.60,10.40 201.60,100.00"/>
    </edge>
    <edge id="E0_C0" from="E0" to="C0" priority="-1">
        <lane id="E0_C0_0" index="0" allow="pedestrian" speed="13.89" length="91.30" width="2.00" shape="100.00,7.40 8.70,7.40"/>
        <lane id="E0_C0_1" index="1" disallow="pedestrian" speed="13.89" length="91.30" shape="100.00,4.80 8.70,4.80"/>
        <lane id="E0_C0_2" index="2" disallow="pedestrian" speed="13.89" length="91.30" shape="100.00,1.60 8.70,1.60"/>
    </edge>
    <edge id="E0_C1" from="E0" to="C1" priority="-1">
        <lane id="E0_C1_0" index="0" allow="pedestrian" speed="13.89" length="92.80" width="2.00" shape="100.00,-7.40 192.80,-7.40"/>
        <lane id="E0_C1_1" index="1" disallow="pedestrian" speed="13.89" length="92.80" shape="100.00,-4.80 192.80,-4.80"/>
        <lane id="E0_C1_2" index="2" disallow="pedestrian" speed="13.89" length="92.80" shape="100.00,-1.60 192.80,-1.60"/>
    </edge>
    <edge id="E1_C1" from="E1" to="C1" priority="-1">
        <lane id="E1_C1_0" index="0" allow="pedestrian" speed="13.89" length="92.80" width="2.00" shape="300.00,7.40 207.20,7.40"/>
        <lane id="E1_C1_1" index="1" disallow="pedestrian" speed="13.89" length="92.80" shape="300.00,4.80 207.20,4.80"/>
        <lane id="E1_C1_2" index="2" disallow="pedestrian" speed="13.89" length="92.80" shape="300.00,1.60 207.20,1.60"/>
    </edge>
    <edge id="N0_C0" from="N0" to="C0" priority="-1">
        <lane id="N0_C0_0" index="0" allow="pedestrian" speed="13.89" length="90.10" width="2.00" shape="-6.20,100.00 -6.20,9.90"/>
        <lane id="N0_C0_1" index="1" allow="bicycle" speed="13.89" length="90.10" width="2.00" shape="-4.20,100.00 -4.20,9.90"/>
        <lane id="N0_C0_2" index="2" disallow="pedestrian" speed="13.89" length="90.10" shape="-1.60,100.00 -1.60,9.90"/>
    </edge>
    <edge id="N1_C1" from="N1" to="C1" priority="-1">
        <lane id="N1_C1_0" index="0" allow="pedestrian" speed="13.89" length="89.60" width="2.00" shape="195.80,100.00 195.80,10.40"/>
        <lane id="N1_C1_1" index="1" disallow="pedestrian" speed="13.89" length="89.60" shape="198.40,100.00 198.40,10.40"/>
    </edge>
    <edge id="S0_C0" from="S0" to="C0" priority="-1">
        <lane id="S0_C0_0" index="0" allow="pedestrian" speed="13.89" length="90.10" width="2.00" shape="6.20,-100.00 6.20,-9.90"/>
        <lane id="S0_C0_1" index="1" allow="bicycle" speed="13.89" length="90.10" width="2.00" shape="4.20,-100.00 4.20,-9.90"/>
        <lane id="S0_C0_2" index="2" disallow="pedestrian" speed="13.89" length="90.10" shape="1.60,-100.00 1.60,-9.90"/>
    </edge>
    <edge id="S1_C1" from="S1" to="C1" priority="-1">
        <lane id="S1_C1_0" index="0" allow="pedestrian" speed="13.89" length="89.60" width="2.00" shape="204.20,-100.00 204.20,-10.40"/>
        <lane id="S1_C1_1" index="1" disallow="pedestrian" speed="13.89" length="89.60" shape="201.60,-100.00 201.60,-10.40"/>
    </edge>
    <edge id="W0_C0" from="W0" to="C0" priority="-1">
        <lane id="W0_C0_0" index="0" allow="pedestrian" speed="13.89" length="91.30" width="2.00" shape="-100.00,-7.40 -8.70,-7.40"/>
        <lane id="W0_C0_1" index="1" disallow="pedestrian" speed="13.89" length="91.30" shape="-100.00,-4.80 -8.70,-4.80"/>
        <lane id="W0_C0_2" index="2" disallow="pedestrian" speed="13.89" length="91.30" shape="-100.00,-1.60 -8.70,-1.60"/>
    </edge>
    <edge id="gneE11" from="gneJ18" to="gneJ19" priority="-1" shape="100.00,0.00 100.10,0.10">
        <lane id="gneE11_0" index="0" speed="13.89" length="0.14" shape="101.13,-1.13 101.23,-1.03"/>
    </edge>
    <edge id="gneE13" from="C1" to="S1" priority="-1">
        <lane id="gneE13_0" index="0" allow="pedestrian" speed="13.89" length="89.60" width="2.00" shape="195.80,-10.40 195.80,-100.00"/>
        <lane id="gneE13_1" index="1" disallow="pedestrian" speed="13.89" length="89.60" shape="198.40,-10.40 198.40,-100.00"/>
    </edge>
    <edge id="gneE15" from="gneJ23" to="gneJ24" priority="-1" shape="100.00,0.00 100.10,0.10">
        <lane id="gneE15_0" index="0" speed="13.89" length="0.14" shape="101.13,-1.13 101.23,-1.03"/>
    </edge>
    <edge id="gneE9" from="gneJ16" to="W0" priority="-1">
        <lane id="gneE9_0" index="0" speed="13.89" length="100.00" shape="0.00,1.60 -100.00,1.60"/>
    </edge>

    <tlLogic id="C0" type="static" programID="0" offset="0">
        <phase duration="37" state="GgGgrrrrGgGgrrrrrGrG"/>
        <phase duration="5"  state="GgGgrrrrGgGgrrrrrrrr"/>
        <phase duration="3"  state="yyyyrrrryyyyrrrrrrrr"/>
        <phase duration="37" state="rrrrgGGgrrrrgGGgGrGr"/>
        <phase duration="5"  state="rrrrgGGgrrrrgGGgrrrr"/>
        <phase duration="3"  state="rrrryyyyrrrryyyyrrrr"/>
    </tlLogic>
    <tlLogic id="C0" type="static" programID="1" offset="0">
        <phase duration="37" state="GgGgrrrrGgGgrrrrrGrG"/>
        <phase duration="5"  state="GgGgrrrrGgGgrrrrrrrr"/>
        <phase duration="3"  state="yyyyrrrryyyyrrrrrrrr"/>
        <phase duration="37" state="rrrrgGGgrrrrgGGgGrGr"/>
        <phase duration="5"  state="rrrrgGGgrrrrgGGgrrrr"/>
        <phase duration="3"  state="rrrryyyyrrrryyyyrrrr"/>
    </tlLogic>
    <tlLogic id="C0" type="static" programID="2" offset="0">
        <phase duration="37" state="GgGgrrrrGgGgrrrrrGrG"/>
        <phase duration="5"  state="GgGgrrrrGgGgrrrrrrrr"/>
        <phase duration="3"  state="yyyyrrrryyyyrrrrrrrr"/>
        <phase duration="37" state="rrrrgGGgrrrrgGGgGrGr"/>
        <phase duration="5"  state="rrrrgGGgrrrrgGGgrrrr"/>
        <phase duration="3"  state="rrrryyyyrrrryyyyrrrr"/>
    </tlLogic>
    <tlLogic id="C0" type="static" programID="3" offset="0">
        <phase duration="37" state="GgGgrrrrGgGgrrrrrGrG"/>
        <phase duration="5"  state="GgGgrrrrGgGgrrrrrrrr"/>
        <phase duration="3"  state="yyyyrrrryyyyrrrrrrrr"/>
        <phase duration="37" state="rrrrgGGgrrrrgGGgGrGr"/>
        <phase duration="5"  state="rrrrgGGgrrrrgGGgrrrr"/>
        <phase duration="3"  state="rrrryyyyrrrryyyyrrrr"/>
    </tlLogic>
    <tlLogic id="C0" type="static" programID="4" offset="0">
        <phase duration="37" state="GgGgrrrrGgGgrrrrrGrG"/>
        <phase duration="5"  state="GgGgrrrrGgGgrrrrrrrr"/>
        <phase duration="3"  state="yyyyrrrryyyyrrrrrrrr"/>
        <phase duration="37" state="rrrrgGGgrrrrgGGgGrGr"/>
        <phase duration="5"  state="rrrrgGGgrrrrgGGgrrrr"/>
        <phase duration="3"  state="rrrryyyyrrrryyyyrrrr"/>
    </tlLogic>
    <tlLogic id="C0" type="static" programID="5" offset="0">
        <phase duration="37" state="GgGgrrrrGgGgrrrrrGrG"/>
        <phase duration="5"  state="GgGgrrrrGgGgrrrrrrrr"/>
        <phase duration="3"  state="yyyyrrrryyyyrrrrrrrr"/>
        <phase duration="37" state="rrrrgGGgrrrrgGGgGrGr"/>
        <phase duration="5"  state="rrrrgGGgrrrrgGGgrrrr"/>
        <phase duration="3"  state="rrrryyyyrrrryyyyrrrr"/>
    </tlLogic>
    <tlLogic id="C0" type="static" programID="6" offset="0">
        <phase duration="37" state="GgGgrrrrGgGgrrrrrGrG"/>
        <phase duration="5"  state="GgGgrrrrGgGgrrrrrrrr"/>
        <phase duration="3"  state="yyyyrrrryyyyrrrrrrrr"/>
        <phase duration="37" state="rrrrgGGgrrrrgGGgGrGr"/>
        <phase duration="5"  state="rrrrgGGgrrrrgGGgrrrr"/>
        <phase duration="3"  state="rrrryyyyrrrryyyyrrrr"/>
    </tlLogic>
    <tlLogic id="C0" type="static" programID="7" offset="0">
        <phase duration="37" state="GgGgrrrrGgGgrrrrrGrG"/>
        <phase duration="5"  state="GgGgrrrrGgGgrrrrrrrr"/>
        <phase duration="3"  state="yyyyrrrryyyyrrrrrrrr"/>
        <phase duration="37" state="rrrrgGGgrrrrgGGgGrGr"/>
        <phase duration="5"  state="rrrrgGGgrrrrgGGgrrrr"/>
        <phase duration="3"  state="rrrryyyyrrrryyyyrrrr"/>
    </tlLogic>
    <tlLogic id="C0" type="static" programID="8" offset="0">
        <phase duration="37" state="GgGgrrrrGgGgrrrrrGrG"/>
        <phase duration="5"  state="GgGgrrrrGgGgrrrrrrrr"/>
        <phase duration="3"  state="yyyyrrrryyyyrrrrrrrr"/>
        <phase duration="37" state="rrrrgGGgrrrrgGGgGrGr"/>
        <phase duration="5"  state="rrrrgGGgrrrrgGGgrrrr"/>
        <phase duration="3"  state="rrrryyyyrrrryyyyrrrr"/>
    </tlLogic>
    <tlLogic id="C0" type="static" programID="9" offset="0">
        <phase duration="37" state="GgGgrrrrGgGgrrrrrGrG"/>
        <phase duration="5"  state="GgGgrrrrGgGgrrrrrrrr"/>
        <phase duration="3"  state="yyyyrrrryyyyrrrrrrrr"/>
        <phase duration="37" state="rrrrgGGgrrrrgGGgGrGr"/>
        <phase duration="5"  state="rrrrgGGgrrrrgGGgrrrr"/>
        <phase duration="3"  state="rrrryyyyrrrryyyyrrrr"/>
    </tlLogic>

    <junction id="C0" type="traffic_light" x="0.00" y="0.00" incLanes="N0_C0_0 N0_C0_1 N0_C0_2 E0_C0_0 E0_C0_1 E0_C0_2 S0_C0_0 S0_C0_1 S0_C0_2 W0_C0_0 W0_C0_1 W0_C0_2 :C0_w1_0 :C0_w2_0 :C0_w3_0 :C0_w0_0" intLanes=":C0_0_0 :C0_16_0 :C0_2_0 :C0_17_0 :C0_18_0 :C0_5_0 :C0_5_1 :C0_19_0 :C0_8_0 :C0_20_0 :C0_10_0 :C0_21_0 :C0_22_0 :C0_13_0 :C0_13_1 :C0_23_0 :C0_c0_0 :C0_c1_0 :C0_c2_0 :C0_c3_0" shape="-7.20,9.90 7.20,9.90 7.37,9.07 7.58,8.78 7.87,8.57 8.24,8.44 8.70,8.40 8.70,-8.40 7.87,-8.57 7.58,-8.77 7.37,-9.07 7.24,-9.44 7.20,-9.90 -7.20,-9.90 -7.37,-9.07 -7.58,-8.78 -7.87,-8.57 -8.24,-8.44 -8.70,-8.40 -8.70,7.20 -7.87,7.50 -7.58,7.87 -7.37,8.40 -7.24,9.07">
        <request index="0"  response="01011001000000000000" foes="01011111100001100010" cont="0"/>
        <request index="1"  response="10010000000000000001" foes="10010000100001100001" cont="1"/>
        <request index="2"  response="01011001000010000000" foes="01011111100011100000" cont="0"/>
        <request index="3"  response="00111000011110000000" foes="00111110011111100000" cont="1"/>
        <request index="4"  response="00110000010100000000" foes="00111000010100000000" cont="1"/>
        <request index="5"  response="10100000110100001111" foes="10101000110100001111" cont="0"/>
        <request index="6"  response="10100000110100001111" foes="10101000110100001111" cont="0"/>
        <request index="7"  response="01100111110100001100" foes="01100111110100001100" cont="1"/>
        <request index="8"  response="01010000000010010000" foes="01010110001011111000" cont="0"/>
        <request index="9"  response="01100000000100000000" foes="01100110000100001000" cont="1"/>
        <request index="10" response="01011000000010010000" foes="01011110000011111000" cont="0"/>